@<TRIPOS>MOLECULE
0CB.pdb
 69 72 0 0 0
SMALL
GASTEIGER

@<TRIPOS>ATOM
      1  C13       -5.3870  -42.8700   12.4670 C.ar  481  0CB481     -0.0532
      2  C14       -4.5900  -43.9980   12.4230 C.ar  481  0CB481     -0.0463
      3  C16       -5.6870  -44.6930   10.3730 C.ar  481  0CB481     -0.0392
      4  C22       -3.9210  -46.1390   11.3120 C.cat 481  0CB481      0.3081
      5  C1        -7.1290  -41.5160   11.5120 C.ar  481  0CB481     -0.0537
      6  C2        -8.0900  -41.2930   10.5220 C.ar  481  0CB481     -0.0564
      7  C3        -8.2230  -42.2030    9.4830 C.ar  481  0CB481     -0.0278
      8  C4        -7.4370  -43.3400    9.4430 C.ar  481  0CB481     -0.0493
      9  C5        -6.4860  -43.5590   10.4310 C.ar  481  0CB481     -0.0168
     10  C6        -6.3350  -42.6460   11.4680 C.ar  481  0CB481     -0.0178
     11  O36      -10.5460  -38.5240    8.2210 O.2   481  0CB481     -0.1544
     12  S32      -10.7270  -39.9220    7.9560 S.O2  481  0CB481      0.0562
     13  O38      -11.5400  -40.4990    8.9930 O.2   481  0CB481     -0.1544
     14  C34      -11.4790  -40.1110    6.4770 C.3   481  0CB481      0.1813
     15  C53      -11.1350  -41.4100    5.7610 C.2   481  0CB481      0.3279
     16  O57      -10.3740  -41.3560    4.7650 O.2   481  0CB481     -0.2491
     17  O54      -11.6190  -42.4960    6.1660 O.3   481  0CB481     -0.4794
     18  N30       -9.3760  -40.6530    7.9500 N.pl3 481  0CB481     -0.2026
     19  C28       -9.2630  -42.0180    8.4080 C.3   481  0CB481      0.0596
     20  C15       -4.7480  -44.9090   11.3700 C.ar  481  0CB481      0.0653
     21  N26       -4.1680  -47.0220   10.3490 N.2   481  0CB481     -0.0994
     22  N24       -3.0140  -46.3560   12.1810 N.pl3 481  0CB481     -0.2466
     23  C40       -8.2820  -40.0510    7.3580 C.ar  481  0CB481      0.0515
     24  C46       -7.8170  -40.6780    6.2160 C.ar  481  0CB481     -0.0356
     25  C45       -6.7520  -40.1390    5.5290 C.ar  481  0CB481     -0.0181
     26  C44       -6.1660  -38.9860    6.0140 C.ar  481  0CB481      0.1210
     27  C43       -6.6210  -38.3440    7.1570 C.ar  481  0CB481     -0.0181
     28  C42       -7.7020  -38.8890    7.8480 C.ar  481  0CB481     -0.0356
     29  O59       -5.1450  -38.5050    5.2720 O.3   481  0CB481     -0.4886
     30  C61       -4.0230  -37.8490    5.7800 C.3   481  0CB481      0.1070
     31  C67       -3.4340  -37.2250    4.5350 C.3   481  0CB481      0.0205
     32  C66       -2.2180  -36.4460    4.9480 C.3   481  0CB481      0.0836
     33  N65       -1.3240  -37.3490    5.6490 N.pl3 481  0CB481     -0.2248
     34  C74       -0.0500  -37.3720    5.3100 C.cat 481  0CB481      0.2771
     35  C76        0.8680  -38.2990    6.0490 C.3   481  0CB481      0.0386
     36  N82        0.3840  -36.6340    4.3850 N.2   481  0CB481     -0.1041
     37  C64       -1.8230  -38.2090    6.7150 C.3   481  0CB481      0.0836
     38  C63       -3.0370  -38.9290    6.1810 C.3   481  0CB481      0.0205
     39 H          -5.2810  -42.1932   13.2388 H     481  0CB481      0.0624
     40 H          -3.8857  -44.1677   13.1580 H     481  0CB481      0.0626
     41 H          -5.7907  -45.3664    9.5979 H     481  0CB481      0.0632
     42 H          -7.0121  -40.8346   12.2782 H     481  0CB481      0.0624
     43 H          -8.6957  -40.4584   10.5634 H     481  0CB481      0.0621
     44 H          -7.5569  -44.0247    8.6802 H     481  0CB481      0.0627
     45 H         -12.5372  -40.0845    6.6332 H     481  0CB481      0.0635
     46 H         -11.1310  -39.3151    5.8522 H     481  0CB481      0.0635
     47 H         -12.1848  -42.5072    6.9128 H     481  0CB481      0.2951
     48 H          -9.0025  -42.6354    7.5739 H     481  0CB481      0.0532
     49 H         -10.2075  -42.2890    8.8315 H     481  0CB481      0.0532
     50 H          -4.8715  -46.8416    9.6843 H     481  0CB481      0.3633
     51 H          -2.4715  -47.1761   12.1321 H     481  0CB481      0.2884
     52 H          -2.8560  -45.7035   12.9011 H     481  0CB481      0.2884
     53 H          -8.2656  -41.5448    5.8807 H     481  0CB481      0.0638
     54 H          -6.3989  -40.5875    4.6692 H     481  0CB481      0.0655
     55 H          -6.1673  -37.4787    7.4894 H     481  0CB481      0.0655
     56 H          -8.0627  -38.4391    8.7039 H     481  0CB481      0.0638
     57 H          -4.2290  -37.1766    6.5864 H     481  0CB481      0.0735
     58 H          -3.1583  -37.9897    3.8392 H     481  0CB481      0.0337
     59 H          -4.1483  -36.5834    4.0627 H     481  0CB481      0.0337
     60 H          -2.5036  -35.6429    5.5949 H     481  0CB481      0.0727
     61 H          -1.7313  -36.0334    4.0890 H     481  0CB481      0.0727
     62 H           1.8605  -38.2023    5.6611 H     481  0CB481      0.0351
     63 H           0.5329  -39.3074    5.9239 H     481  0CB481      0.0351
     64 H           0.8657  -38.0488    7.0893 H     481  0CB481      0.0351
     65 H          -0.2300  -36.0300    3.9081 H     481  0CB481      0.3629
     66 H          -2.0924  -37.6185    7.5657 H     481  0CB481      0.0727
     67 H          -1.0723  -38.9078    7.0200 H     481  0CB481      0.0727
     68 H          -2.7724  -39.5242    5.3321 H     481  0CB481      0.0337
     69 H          -3.4548  -39.5877    6.9134 H     481  0CB481      0.0337
@<TRIPOS>BOND
     1    36    34    2
     2    31    32    1
     3    31    30    1
     4    16    15    2
     5    32    33    1
     6    29    30    1
     7    29    26    1
     8    34    33    1
     9    34    35    1
    10    25    26   ar
    11    25    24   ar
    12    33    37    1
    13    15    17    1
    14    15    14    1
    15    30    38    1
    16    26    27   ar
    17    38    37    1
    18    24    23   ar
    19    14    12    1
    20    27    28   ar
    21    23    28   ar
    22    23    18    1
    23    18    12    1
    24    18    19    1
    25    12    11    2
    26    12    13    2
    27    19     7    1
    28     8     7   ar
    29     8     9   ar
    30     7     6   ar
    31    21     4    2
    32     3     9   ar
    33     3    20   ar
    34     9    10   ar
    35     6     5   ar
    36     4    20    1
    37     4    22    1
    38    20     2   ar
    39    10     5   ar
    40    10     1   ar
    41     2     1   ar
    42     1    39    1
    43     2    40    1
    44     3    41    1
    45     5    42    1
    46     6    43    1
    47     8    44    1
    48    14    45    1
    49    14    46    1
    50    17    47    1
    51    19    48    1
    52    19    49    1
    53    21    50    1
    54    22    51    1
    55    22    52    1
    56    24    53    1
    57    25    54    1
    58    27    55    1
    59    28    56    1
    60    30    57    1
    61    31    58    1
    62    31    59    1
    63    32    60    1
    64    32    61    1
    65    35    62    1
    66    35    63    1
    67    35    64    1
    68    36    65    1
    69    37    66    1
    70    37    67    1
    71    38    68    1
    72    38    69    1