@<TRIPOS>MOLECULE
aceanthrylene.pdb
 26 29 0 0 0
SMALL
GASTEIGER

@<TRIPOS>ATOM
      1  C1        -1.0730   -0.1230    0.1700 C.ar  900  UNK900     -0.0030
      2  C2        -0.0110   -1.0190    0.1680 C.ar  900  UNK900     -0.0090
      3  C3        -0.9740    1.2730    0.1510 C.ar  900  UNK900     -0.0162
      4  C4         1.2940   -0.4820    0.1700 C.ar  900  UNK900     -0.0101
      5  C5        -2.2530   -0.8560    0.2000 C.ar  900  UNK900     -0.0167
      6  C6         1.4610    0.9340    0.1750 C.ar  900  UNK900     -0.0167
      7  C7         0.3360    1.7980    0.1550 C.ar  900  UNK900     -0.0463
      8  C8        -0.5650   -2.3780    0.1830 C.2   900  UNK900     -0.0528
      9  C9        -1.9090   -2.2790    0.2170 C.2   900  UNK900     -0.0534
     10  C10       -2.2000    1.9770    0.1360 C.ar  900  UNK900     -0.0540
     11  C11       -3.4660   -0.1410    0.2170 C.ar  900  UNK900     -0.0540
     12  C12        2.4250   -1.3250    0.1700 C.ar  900  UNK900     -0.0534
     13  C13        2.7630    1.4780    0.2010 C.ar  900  UNK900     -0.0540
     14  C14       -3.4320    1.2760    0.1790 C.ar  900  UNK900     -0.0606
     15  C15        3.7190   -0.7690    0.1980 C.ar  900  UNK900     -0.0611
     16  C16        3.8870    0.6290    0.2230 C.ar  900  UNK900     -0.0612
     17 H           0.4769    2.8203    0.1433 H     900  UNK900      0.0630
     18 H          -0.0213   -3.2551    0.1698 H     900  UNK900      0.0624
     19 H          -2.5762   -3.0657    0.2492 H     900  UNK900      0.0624
     20 H          -2.1983    3.0081    0.0935 H     900  UNK900      0.0624
     21 H          -4.3676   -0.6416    0.2566 H     900  UNK900      0.0624
     22 H           2.3044   -2.3497    0.1495 H     900  UNK900      0.0624
     23 H           2.8922    2.5019    0.2039 H     900  UNK900      0.0624
     24 H          -4.3178    1.8055    0.1827 H     900  UNK900      0.0618
     25 H           4.5453   -1.3872    0.2002 H     900  UNK900      0.0618
     26 H           4.8362    1.0327    0.2575 H     900  UNK900      0.0618
@<TRIPOS>BOND
     1     1     2   ar
     2     1     3   ar
     3     1     5   ar
     4     2     4   ar
     5     2     8    1
     6     3     7   ar
     7     3    10   ar
     8     4     6   ar
     9     4    12   ar
    10     5     9    1
    11     5    11   ar
    12     6     7   ar
    13     6    13   ar
    14     8     9    2
    15    10    14   ar
    16    11    14   ar
    17    12    15   ar
    18    13    16   ar
    19    15    16   ar
    20     7    17    1
    21     8    18    1
    22     9    19    1
    23    10    20    1
    24    11    21    1
    25    12    22    1
    26    13    23    1
    27    14    24    1
    28    15    25    1
    29    16    26    1
