@<TRIPOS>MOLECULE
5xvg_8FX
52   56    1
SMALL
USER_CHARGES


@<TRIPOS>ATOM
      1 C1         18.3330   16.2360   62.1670 C.ar      1 UNL        -0.0221 
      2 C2         18.1820   14.8460   62.0440 C.ar      1 UNL         0.0422 
      3 C3         18.3200   14.2350   60.7850 C.ar      1 UNL        -0.0371 
      4 C4         18.6430   15.0180   59.6600 C.ar      1 UNL         0.0121 
      5 C5         18.9280   20.4640   62.6020 C.ar      1 UNL         0.3023 
      6 C6         19.4360   21.4860   61.7500 C.ar      1 UNL         0.0533 
      7 C7         19.5350   22.5770   62.5650 C.ar      1 UNL         0.0846 
      8 C8         20.0460   23.9500   62.3040 C.3       1 UNL         0.0047 
      9 C9         20.0880   19.1710   57.7500 C.2       1 UNL         0.3829 
     10 C10        19.8050   20.6360   55.7940 C.3       1 UNL         0.0582 
     11 C11        19.7270   22.1110   56.2250 C.3       1 UNL        -0.0093 
     12 C12        17.7790   21.5810   57.6110 C.3       1 UNL        -0.0172 
     13 C13        17.8690   20.1250   57.1330 C.3       1 UNL         0.0556 
     14 C14        20.2240   23.0750   55.1450 C.3       1 UNL        -0.0202 
     15 N1         18.6670   19.1270   62.2960 N.pl3     1 UNL        -0.2055 
     16 N2         19.1010   22.1750   63.8050 N.pl3     1 UNL        -0.1674 
     17 N3         18.7190   20.8840   63.8300 N.2       1 UNL        -0.1105 
     18 N4         19.2810   19.8290   56.8950 N.am      1 UNL        -0.2767 
     19 N5         18.3660   22.4560   56.6080 N.4       1 UNL         0.2312 
     20 O1         21.3150   19.1640   57.6620 O.2       1 UNL        -0.2560 
     21 C15        20.1160   24.5220   60.9050 C.3       1 UNL        -0.0441 
     22 C16        21.3790   24.1070   61.6230 C.3       1 UNL        -0.0441 
     23 O23        17.9187   14.0950   63.1518 O.co2     1 UNL        -0.0835 
     24 N6         19.2200   17.1130   58.7120 N.ar      1 UNL        -0.1432 
     25 C17        19.4520   18.4090   58.8930 C.ar      1 UNL         0.5102 
     26 N7         19.2800   19.0770   60.0260 N.ar      1 UNL        -0.1298 
     27 C18        18.8650   18.4100   61.1050 C.ar      1 UNL         0.2967 
     28 C19        18.6590   17.0180   61.0390 C.ar      1 UNL         0.1355 
     29 C20        18.8400   16.4070   59.7770 C.ar      1 UNL         0.2265 
     30 H1         18.2051   16.6877   63.0861 H         1 UNL         0.0643 
     31 H2         18.1851   13.2167   60.6859 H         1 UNL         0.0634 
     32 H3         18.7366   14.5671   58.7365 H         1 UNL         0.0684 
     33 H4         19.6742   21.4177   60.7482 H         1 UNL         0.0718 
     34 H5         19.5990   24.2845   63.2168 H         1 UNL         0.0365 
     35 H6         20.8212   20.3667   55.5949 H         1 UNL         0.0520 
     36 H7         19.2360   20.4729   54.9026 H         1 UNL         0.0520 
     37 H8         20.3790   22.2179   57.0666 H         1 UNL         0.0863 
     38 H9         18.3112   21.6875   58.5331 H         1 UNL         0.0829 
     39 H10        16.7529   21.8456   57.7597 H         1 UNL         0.0829 
     40 H11        17.3120   20.0023   56.2277 H         1 UNL         0.0517 
     41 H12        17.4624   19.4608   57.8668 H         1 UNL         0.0517 
     42 H13        19.5958   22.9986   54.2822 H         1 UNL         0.0285 
     43 H14        21.2291   22.8236   54.8777 H         1 UNL         0.0285 
     44 H15        20.1946   24.0767   55.5201 H         1 UNL         0.0285 
     45 H16        18.2819   18.6021   63.0346 H         1 UNL         0.1633 
     46 H17        19.0724   22.7672   64.5909 H         1 UNL         0.2362 
     47 H18        17.7816   22.4197   55.7728 H         1 UNL         0.2017 
     48 H19        19.9100   25.5588   60.7391 H         1 UNL         0.0272 
     49 H20        19.6649   24.2831   59.9646 H         1 UNL         0.0272 
     50 H21        21.9185   23.2418   61.2985 H         1 UNL         0.0272 
     51 H22        22.3011   24.5904   61.8699 H         1 UNL         0.0272 
     52 HN5        18.3614   23.4015   56.9632 H         1 UNL         0.0000 
@<TRIPOS>BOND
     1    1    2 ar   
     2    1   28 ar   
     3    1   30 1    
     4    2    3 ar   
     5    2   23 1    
     6    3    4 ar   
     7    3   31 1    
     8    4   29 ar   
     9    4   32 1    
    10    5    6 ar   
    11    5   15 1    
    12    5   17 ar   
    13    6    7 ar   
    14    6   33 1    
    15    7    8 1    
    16    7   16 ar   
    17    8   21 1    
    18    8   22 1    
    19    8   34 1    
    20    9   18 am   
    21    9   20 2    
    22    9   25 1    
    23   10   11 1    
    24   10   18 1    
    25   10   35 1    
    26   10   36 1    
    27   11   14 1    
    28   11   19 1    
    29   11   37 1    
    30   12   13 1    
    31   12   19 1    
    32   12   38 1    
    33   12   39 1    
    34   13   18 1    
    35   13   40 1    
    36   13   41 1    
    37   14   42 1    
    38   14   43 1    
    39   14   44 1    
    40   15   27 1    
    41   15   45 1    
    42   16   17 ar   
    43   16   46 1    
    44   19   47 1    
    45   19   52 1    
    46   21   22 1    
    47   21   48 1    
    48   21   49 1    
    49   22   50 1    
    50   22   51 1    
    51   24   25 ar   
    52   24   29 ar   
    53   25   26 ar   
    54   26   27 ar   
    55   27   28 ar   
    56   28   29 ar   
@<TRIPOS>SUBSTRUCTURE
     1 UNL         1 GROUP             0       ****    0 ROOT    
