@<TRIPOS>MOLECULE
DMPE
109   108    1
SMALL
USER_CHARGES


@<TRIPOS>ATOM
      1 N           0.6633   15.3655   14.7625 N.4       1 DMPE        0.0000
      2 HN1         1.1726   16.1894   14.5019 H         1 DMPE        0.0000
      3 HN2         0.1809   14.9438   13.9854 H         1 DMPE        0.0000
      4 HN3         1.3821   14.6619   15.0540 H         1 DMPE        0.0000
      5 C12        -0.1745   15.5004   15.9655 C.3       1 DMPE        0.0000
      6 H12A       -0.8233   16.3727   15.8851 H         1 DMPE        0.0000
      7 H12B        0.4818   15.6663   16.8224 H         1 DMPE        0.0000
      8 C11        -1.0114   14.2282   16.1775 C.3       1 DMPE        0.0000
      9 H11A       -1.9046   14.2441   15.5538 H         1 DMPE        0.0000
     10 H11B       -1.3444   14.1598   17.2153 H         1 DMPE        0.0000
     11 P           1.2185   12.7508   16.5737 P.3       1 DMPE        0.0000
     12 O13         1.0385   12.9724   18.0085 O.co2     1 DMPE        0.0000
     13 O14         2.1394   13.6157   15.8028 O.co2     1 DMPE        0.0000
     14 O11         1.4953   11.1456   16.1809 O.3       1 DMPE        0.0000
     15 O12        -0.2706   13.0679   15.8518 O.3       1 DMPE        0.0000
     16 C1          1.2271   10.6336   14.8852 C.3       1 DMPE        0.0000
     17 HA          0.1626   10.3980   14.8757 H         1 DMPE        0.0000
     18 HB          1.7537    9.6864   14.7746 H         1 DMPE        0.0000
     19 C2          1.5406   11.5650   13.6893 C.3       1 DMPE        0.0000
     20 HS          1.0799   12.5366   13.8511 H         1 DMPE        0.0000
     21 O21         0.9636   10.9470   12.5433 O.3       1 DMPE        0.0000
     22 C21         0.0716   11.6065   11.7835 C.2       1 DMPE        0.0000
     23 O22        -0.3201   12.7624   11.9572 O.2       1 DMPE        0.0000
     24 C22        -0.4291   10.7608   10.6145 C.3       1 DMPE        0.0000
     25 H2R        -1.3560   11.1891   10.2332 H         1 DMPE        0.0000
     26 H2S        -0.6720    9.7692   10.9969 H         1 DMPE        0.0000
     27 C3          3.0534   11.7495   13.4447 C.3       1 DMPE        0.0000
     28 HX          3.5296   10.7697   13.4144 H         1 DMPE        0.0000
     29 HY          3.5178   12.2841   14.2733 H         1 DMPE        0.0000
     30 O31         3.3631   12.4046   12.2160 O.3       1 DMPE        0.0000
     31 C31         3.0951   13.7043   12.0188 C.2       1 DMPE        0.0000
     32 O32         2.4814   14.4507   12.7839 O.2       1 DMPE        0.0000
     33 C32         3.6537   14.1909   10.6813 C.3       1 DMPE        0.0000
     34 H2X         3.3713   13.4801    9.9053 H         1 DMPE        0.0000
     35 H2Y         4.7399   14.1382   10.7550 H         1 DMPE        0.0000
     36 C23         0.6126   10.6518    9.4881 C.3       1 DMPE        0.0000
     37 H3R         1.5937   10.4185    9.9060 H         1 DMPE        0.0000
     38 H3S         0.7095   11.6231    9.0051 H         1 DMPE        0.0000
     39 C24         0.2474    9.5941    8.4349 C.3       1 DMPE        0.0000
     40 H4R        -0.7623    9.7773    8.0630 H         1 DMPE        0.0000
     41 H4S         0.2300    8.6089    8.9036 H         1 DMPE        0.0000
     42 C25         1.2328    9.5921    7.2565 C.3       1 DMPE        0.0000
     43 H5R         2.2516    9.4884    7.6320 H         1 DMPE        0.0000
     44 H5S         1.1854   10.5615    6.7641 H         1 DMPE        0.0000
     45 C26         0.9554    8.4729    6.2391 C.3       1 DMPE        0.0000
     46 H6R        -0.0850    8.5064    5.9146 H         1 DMPE        0.0000
     47 H6S         1.0801    7.5124    6.7407 H         1 DMPE        0.0000
     48 C27         1.8859    8.5102    5.0115 C.3       1 DMPE        0.0000
     49 H7R         1.7825    7.5695    4.4684 H         1 DMPE        0.0000
     50 H7S         2.9255    8.5565    5.3395 H         1 DMPE        0.0000
     51 C28         1.5874    9.6686    4.0436 C.3       1 DMPE        0.0000
     52 C29         2.5074    9.6832    2.8106 C.3       1 DMPE        0.0000
     53 H9R         2.4154    8.7262    2.2949 H         1 DMPE        0.0000
     54 H9S         3.5519    9.7628    3.1144 H         1 DMPE        0.0000
     55 C210        2.1659   10.8065    1.8162 C.3       1 DMPE        0.0000
     56 H10R        1.0951   10.7977    1.6091 H         1 DMPE        0.0000
     57 H10S        2.6614   10.5858    0.8710 H         1 DMPE        0.0000
     58 C211        2.6039   12.2057    2.2827 C.3       1 DMPE        0.0000
     59 H11R        3.6931   12.2589    2.3051 H         1 DMPE        0.0000
     60 H11S        2.2850   12.3630    3.3119 H         1 DMPE        0.0000
     61 C212        2.0373   13.3678    1.4462 C.3       1 DMPE        0.0000
     62 H12R        2.3391   14.2945    1.9368 H         1 DMPE        0.0000
     63 H12S        0.9473   13.3651    1.4833 H         1 DMPE        0.0000
     64 C213        2.5262   13.4273   -0.0131 C.3       1 DMPE        0.0000
     65 H13R        3.5472   13.0515   -0.0864 H         1 DMPE        0.0000
     66 H13S        2.5739   14.4743   -0.3146 H         1 DMPE        0.0000
     67 C214        1.6116   12.6982   -1.0095 C.3       1 DMPE        0.0000
     68 H14R        1.9859   12.8084   -2.0275 H         1 DMPE        0.0000
     69 H14S        0.6006   13.1063   -0.9861 H         1 DMPE        0.0000
     70 H14T        1.5413   11.6318   -0.8028 H         1 DMPE        0.0000
     71 C33         3.2517   15.6258   10.2736 C.3       1 DMPE        0.0000
     72 H3X         3.8731   15.9291    9.4311 H         1 DMPE        0.0000
     73 H3Y         3.5112   16.3153   11.0780 H         1 DMPE        0.0000
     74 C34         1.7671   15.8256    9.9003 C.3       1 DMPE        0.0000
     75 H4X         1.6281   16.8473    9.5445 H         1 DMPE        0.0000
     76 H4Y         1.1535   15.7415   10.7978 H         1 DMPE        0.0000
     77 C35         1.2174   14.8485    8.8463 C.3       1 DMPE        0.0000
     78 H5X         0.1721   15.0975    8.6620 H         1 DMPE        0.0000
     79 H5Y         1.2033   13.8443    9.2675 H         1 DMPE        0.0000
     80 C36         1.9886   14.8438    7.5122 C.3       1 DMPE        0.0000
     81 H6X         3.0279   14.5752    7.7018 H         1 DMPE        0.0000
     82 H6Y         2.0083   15.8437    7.0764 H         1 DMPE        0.0000
     83 C37         1.4227   13.8343    6.5010 C.3       1 DMPE        0.0000
     84 H7X         1.2277   12.8929    7.0116 H         1 DMPE        0.0000
     85 H7Y         2.1853   13.6091    5.7541 H         1 DMPE        0.0000
     86 C38         0.1616   14.3296    5.7717 C.3       1 DMPE        0.0000
     87 H8X         0.4539   15.1163    5.0750 H         1 DMPE        0.0000
     88 H8Y        -0.5356   14.7949    6.4687 H         1 DMPE        0.0000
     89 C39        -0.5621   13.2157    4.9983 C.3       1 DMPE        0.0000
     90 H9X         0.1647   12.5936    4.4750 H         1 DMPE        0.0000
     91 H9Y        -1.1781   13.6749    4.2246 H         1 DMPE        0.0000
     92 C310       -1.4612   12.3509    5.9013 C.3       1 DMPE        0.0000
     93 H10X       -2.2880   12.9539    6.2784 H         1 DMPE        0.0000
     94 H10Y       -0.9004   12.0368    6.7815 H         1 DMPE        0.0000
     95 C311       -2.0115   11.0900    5.2169 C.3       1 DMPE        0.0000
     96 H11X       -2.5831   10.5206    5.9510 H         1 DMPE        0.0000
     97 H11Y       -1.1807   10.4491    4.9264 H         1 DMPE        0.0000
     98 C312       -2.9005   11.3686    3.9941 C.3       1 DMPE        0.0000
     99 H12X       -2.3253   11.8943    3.2308 H         1 DMPE        0.0000
    100 H12Y       -3.7191   12.0310    4.2788 H         1 DMPE        0.0000
    101 C313       -3.4693   10.0788    3.3851 C.3       1 DMPE        0.0000
    102 H13X       -4.0612    9.5487    4.1326 H         1 DMPE        0.0000
    103 H13Y       -2.6505    9.4109    3.1124 H         1 DMPE        0.0000
    104 C314       -4.3369   10.3421    2.1491 C.3       1 DMPE        0.0000
    105 H14X       -3.7626   10.8272    1.3590 H         1 DMPE        0.0000
    106 H14Y       -5.1850   10.9835    2.3904 H         1 DMPE        0.0000
    107 H14Z       -4.7312    9.4085    1.7463 H         1 DMPE        0.0000
    108 HC28        1.6738   10.6160    4.5728 H         1 DMPE        0.0000
    109 HC29        0.5537    9.5956    3.7047 H         1 DMPE        0.0000
@<TRIPOS>BOND
     1    1    2 1
     2    1    3 1
     3    1    4 1
     4    1    5 1
     5    5    6 1
     6    5    7 1
     7    5    8 1
     8    8    9 1
     9    8   10 1
    10    8   15 1
    11   11   12 2
    12   11   13 1
    13   11   14 1
    14   11   15 1
    15   14   16 1
    16   16   17 1
    17   16   18 1
    18   16   19 1
    19   19   20 1
    20   19   21 1
    21   19   27 1
    22   21   22 1
    23   22   23 2
    24   22   24 1
    25   24   25 1
    26   24   26 1
    27   24   36 1
    28   27   28 1
    29   27   29 1
    30   27   30 1
    31   30   31 1
    32   31   32 2
    33   31   33 1
    34   33   34 1
    35   33   35 1
    36   33   71 1
    37   36   37 1
    38   36   38 1
    39   36   39 1
    40   39   40 1
    41   39   41 1
    42   39   42 1
    43   42   43 1
    44   42   44 1
    45   42   45 1
    46   45   46 1
    47   45   47 1
    48   45   48 1
    49   48   49 1
    50   48   50 1
    51   48   51 1
    52   51   52 1
    53   51  108 1
    54   51  109 1
    55   52   53 1
    56   52   54 1
    57   52   55 1
    58   55   56 1
    59   55   57 1
    60   55   58 1
    61   58   59 1
    62   58   60 1
    63   58   61 1
    64   61   62 1
    65   61   63 1
    66   61   64 1
    67   64   65 1
    68   64   66 1
    69   64   67 1
    70   67   68 1
    71   67   69 1
    72   67   70 1
    73   71   72 1
    74   71   73 1
    75   71   74 1
    76   74   75 1
    77   74   76 1
    78   74   77 1
    79   77   78 1
    80   77   79 1
    81   77   80 1
    82   80   81 1
    83   80   82 1
    84   80   83 1
    85   83   84 1
    86   83   85 1
    87   83   86 1
    88   86   87 1
    89   86   88 1
    90   86   89 1
    91   89   90 1
    92   89   91 1
    93   89   92 1
    94   92   93 1
    95   92   94 1
    96   92   95 1
    97   95   96 1
    98   95   97 1
    99   95   98 1
   100   98   99 1
   101   98  100 1
   102   98  101 1
   103  101  102 1
   104  101  103 1
   105  101  104 1
   106  104  105 1
   107  104  106 1
   108  104  107 1
@<TRIPOS>SUBSTRUCTURE
     1 DMPE        1 GROUP             0 X     ****    0 ROOT
