@<TRIPOS>MOLECULE
E20
58   61    1
SMALL
USER_CHARGES


@<TRIPOS>ATOM
      1 C1          3.2886   60.2063   72.3420 C.ar      1 E20         0.0850 
      2 C2          3.9480   60.2653   71.0736 C.ar      1 E20         0.0850 
      3 C3          3.7006   61.3477   70.2006 C.ar      1 E20        -0.1150 
      4 C4          2.7731   62.3222   70.5791 C.ar      1 E20        -0.1150 
      5 C5          2.1168   62.2461   71.7522 C.ar      1 E20        -0.1150 
      6 C6          2.3553   61.2241   72.6849 C.ar      1 E20        -0.1150 
      7 C7          1.1732   63.2782   71.8774 C.2       1 E20         0.5850 
      8 C8          1.2644   64.2269   70.6342 C.3       1 E20        -0.0600 
      9 C9          2.4025   63.5070   69.7151 C.3       1 E20        -0.0050 
     10 C10         0.0325   64.6998   69.8362 C.3       1 E20        -0.1200 
     11 C11         0.1330   66.1836   69.3396 C.3       1 E20        -0.0600 
     12 C12         1.5799   66.5600   68.9712 C.3       1 E20        -0.1200 
     13 C13         1.7182   67.9410   68.3425 C.3       1 E20         0.1500 
     14 N14         0.9536   67.9791   67.0814 N.4       1 E20        -0.1000 
     15 C15        -0.4927   67.7981   67.3520 C.3       1 E20         0.1500 
     16 C16        -0.7757   66.4728   68.1087 C.3       1 E20        -0.1200 
     17 C17         1.2578   69.1722   66.2627 C.3       1 E20         0.2650 
     18 C18         2.6136   69.0615   65.5765 C.ar      1 E20        -0.1150 
     19 C19         2.7346   68.3542   64.3613 C.ar      1 E20        -0.1150 
     20 C20         3.9871   68.2608   63.7215 C.ar      1 E20        -0.1150 
     21 C21         5.1195   68.8725   64.2944 C.ar      1 E20        -0.1150 
     22 C22         5.0014   69.5774   65.5080 C.ar      1 E20        -0.1150 
     23 C23         3.7507   69.6729   66.1496 C.ar      1 E20        -0.1150 
     24 O24         0.3831   63.4515   72.8029 O.2       1 E20        -0.4700 
     25 O25         3.5521   59.1588   73.2023 O.3       1 E20        -0.2850 
     26 C26         2.9336   59.1295   74.4810 C.3       1 E20         0.1100 
     27 O27         4.8028   59.2730   70.6892 O.3       1 E20        -0.2850 
     28 C28         4.1086   58.0729   70.3589 C.3       1 E20         0.1100 
     29 H3          4.2007   61.4075   69.2453 H         1 E20         0.1150 
     30 H6          1.8178   61.2013   73.6206 H         1 E20         0.1150 
     31 H8          1.5990   65.1339   71.0889 H         1 E20         0.0600 
     32 H91         3.2667   64.1508   69.5485 H         1 E20         0.0600 
     33 H92         2.0186   63.1625   68.7546 H         1 E20         0.0600 
     34 H101       -0.1131   64.0731   68.9626 H         1 E20         0.0600 
     35 H102       -0.8270   64.5196   70.4612 H         1 E20         0.0600 
     36 H11        -0.1582   66.8332   70.1644 H         1 E20         0.0600 
     37 H121        1.9727   65.8091   68.2898 H         1 E20         0.0600 
     38 H122        2.2205   66.5613   69.8488 H         1 E20         0.0600 
     39 H131        1.3769   68.7177   69.0273 H         1 E20         0.0600 
     40 H132        2.7729   68.1338   68.1579 H         1 E20         0.0600 
     41 HN14        1.2486   67.1901   66.5256 H         1 E20         0.2900 
     42 H151       -0.8603   68.6700   67.8890 H         1 E20         0.0600 
     43 H152       -1.0394   67.7824   66.4075 H         1 E20         0.0600 
     44 H161       -0.6520   65.6731   67.3883 H         1 E20         0.0600 
     45 H162       -1.8266   66.4574   68.3960 H         1 E20         0.0600 
     46 H171        0.4968   69.2724   65.4889 H         1 E20         0.0600 
     47 H172        1.2070   70.0728   66.8766 H         1 E20         0.0600 
     48 H19         1.8672   67.8864   63.9178 H         1 E20         0.1150 
     49 H20         4.0794   67.7213   62.7900 H         1 E20         0.1150 
     50 H21         6.0796   68.8017   63.8023 H         1 E20         0.1150 
     51 H22         5.8702   70.0468   65.9459 H         1 E20         0.1150 
     52 H23         3.6627   70.2181   67.0783 H         1 E20         0.1150 
     53 H261        3.3010   58.2657   75.0347 H         1 E20         0.0300 
     54 H262        1.8508   59.0301   74.3962 H         1 E20         0.0300 
     55 H263        3.1729   60.0189   75.0653 H         1 E20         0.0300 
     56 H281        4.7738   57.3570   69.8811 H         1 E20         0.0300 
     57 H282        3.2918   58.2662   69.6610 H         1 E20         0.0300 
     58 H283        3.6941   57.5882   71.2425 H         1 E20         0.0300 
@<TRIPOS>BOND
     1    1    2 ar   
     2    1    6 ar   
     3    1   25 1    
     4    2    3 ar   
     5    2   27 1    
     6    3    4 ar   
     7    3   29 1    
     8    4    5 ar   
     9    4    9 1    
    10    5    6 ar   
    11    5    7 1    
    12    6   30 1    
    13    7    8 1    
    14    7   24 2    
    15    8    9 1    
    16    8   10 1    
    17    8   31 1    
    18    9   32 1    
    19    9   33 1    
    20   10   11 1    
    21   10   34 1    
    22   10   35 1    
    23   11   12 1    
    24   11   16 1    
    25   11   36 1    
    26   12   13 1    
    27   12   37 1    
    28   12   38 1    
    29   13   14 1    
    30   13   39 1    
    31   13   40 1    
    32   14   15 1    
    33   14   17 1    
    34   14   41 1    
    35   15   16 1    
    36   15   42 1    
    37   15   43 1    
    38   16   44 1    
    39   16   45 1    
    40   17   18 1    
    41   17   46 1    
    42   17   47 1    
    43   18   19 ar   
    44   18   23 ar   
    45   19   20 ar   
    46   19   48 1    
    47   20   21 ar   
    48   20   49 1    
    49   21   22 ar   
    50   21   50 1    
    51   22   23 ar   
    52   22   51 1    
    53   23   52 1    
    54   25   26 1    
    55   26   53 1    
    56   26   54 1    
    57   26   55 1    
    58   27   28 1    
    59   28   56 1    
    60   28   57 1    
    61   28   58 1    
@<TRIPOS>SUBSTRUCTURE
     1 E20         1 GROUP             0 A     ****    0 ROOT    
@<TRIPOS>MOLECULE
E20
58   61    1
SMALL
USER_CHARGES


@<TRIPOS>ATOM
      1 C1          3.6038   67.6362   62.4615 C.ar      1 E20         0.0850 
      2 C2          3.9729   66.5050   63.2697 C.ar      1 E20         0.0850 
      3 C3          3.0613   66.0237   64.2546 C.ar      1 E20        -0.1150 
      4 C4          1.8171   66.6459   64.3769 C.ar      1 E20        -0.1150 
      5 C5          1.4733   67.6832   63.6108 C.ar      1 E20        -0.1150 
      6 C6          2.3283   68.2242   62.6405 C.ar      1 E20        -0.1150 
      7 C7          0.1765   68.1188   63.9093 C.2       1 E20         0.5850 
      8 C8         -0.3652   67.3529   65.1607 C.3       1 E20        -0.0600 
      9 C9          0.7495   66.1997   65.3371 C.3       1 E20        -0.0050 
     10 C10        -0.5029   68.1919   66.4153 C.3       1 E20        -0.1200 
     11 C11         0.7026   69.0615   66.7500 C.3       1 E20        -0.0600 
     12 C12         0.2860   69.9542   67.8890 C.3       1 E20        -0.1200 
     13 C13         1.4154   70.8707   68.3240 C.3       1 E20         0.1500 
     14 N14         2.7496   70.2342   68.4524 N.4       1 E20        -0.1000 
     15 C15         3.0842   69.3453   67.3385 C.3       1 E20         0.1500 
     16 C16         1.9859   68.3351   67.1842 C.3       1 E20        -0.1200 
     17 C17         3.7611   71.2763   68.6296 C.3       1 E20         0.2650 
     18 C18         5.1830   70.8443   68.6146 C.ar      1 E20        -0.1150 
     19 C19         5.9160   70.8388   67.4196 C.ar      1 E20        -0.1150 
     20 C20         7.2551   70.4457   67.4404 C.ar      1 E20        -0.1150 
     21 C21         7.8598   70.0730   68.6627 C.ar      1 E20        -0.1150 
     22 C22         7.1174   70.0742   69.8383 C.ar      1 E20        -0.1150 
     23 C23         5.7807   70.4598   69.8038 C.ar      1 E20        -0.1150 
     24 O24        -0.4717   68.9588   63.3019 O.2       1 E20        -0.4700 
     25 O25         4.4516   68.1396   61.4992 O.3       1 E20        -0.2850 
     26 C26         5.8364   68.2463   61.8019 C.3       1 E20         0.1100 
     27 O27         5.1731   65.8777   63.0789 O.3       1 E20        -0.2850 
     28 C28         5.1280   64.4563   63.0992 C.3       1 E20         0.1100 
     29 H3          3.3072   65.1759   64.8742 H         1 E20         0.1150 
     30 H6          2.0192   69.0657   62.0367 H         1 E20         0.1150 
     31 H8         -1.3563   66.9270   65.0891 H         1 E20         0.0600 
     32 H91         0.3729   65.2731   64.9409 H         1 E20         0.0600 
     33 H92         1.0859   66.0731   66.3604 H         1 E20         0.0600 
     34 H101       -1.3806   68.8279   66.2820 H         1 E20         0.0600 
     35 H102       -0.7393   67.5423   67.2594 H         1 E20         0.0600 
     36 H11         0.9428   69.6731   65.8898 H         1 E20         0.0600 
     37 H121       -0.0274   69.3009   68.6889 H         1 E20         0.0600 
     38 H122       -0.5883   70.5532   67.6275 H         1 E20         0.0600 
     39 H131        1.4817   71.6722   67.6005 H         1 E20         0.0600 
     40 H132        1.1387   71.2730   69.2873 H         1 E20         0.0600 
     41 HN14        2.7316   69.6701   69.2915 H         1 E20         0.2900 
     42 H151        3.2164   69.9169   66.4173 H         1 E20         0.0600 
     43 H152        4.0236   68.8310   67.5267 H         1 E20         0.0600 
     44 H161        1.8379   67.7516   68.0947 H         1 E20         0.0600 
     45 H162        2.4058   67.6806   66.4490 H         1 E20         0.0600 
     46 H171        3.6782   72.0729   67.8990 H         1 E20         0.0600 
     47 H172        3.5730   71.6729   69.6214 H         1 E20         0.0600 
     48 H19         5.4513   71.1363   66.4902 H         1 E20         0.1150 
     49 H20         7.8286   70.4345   66.5255 H         1 E20         0.1150 
     50 H21         8.8924   69.7721   68.6890 H         1 E20         0.1150 
     51 H22         7.5729   69.7770   70.7698 H         1 E20         0.1150 
     52 H23         5.2038   70.4730   70.6891 H         1 E20         0.1150 
     53 H261        6.2577   69.0824   61.2441 H         1 E20         0.0300 
     54 H262        6.3705   67.3484   61.4901 H         1 E20         0.0300 
     55 H263        6.0224   68.4328   62.8610 H         1 E20         0.0300 
     56 H281        6.0502   64.0537   62.6891 H         1 E20         0.0300 
     57 H282        4.3037   64.0716   62.4979 H         1 E20         0.0300 
     58 H283        5.0375   64.0653   64.1124 H         1 E20         0.0300 
@<TRIPOS>BOND
     1    1    2 ar   
     2    1    6 ar   
     3    1   25 1    
     4    2    3 ar   
     5    2   27 1    
     6    3    4 ar   
     7    3   29 1    
     8    4    5 ar   
     9    4    9 1    
    10    5    6 ar   
    11    5    7 1    
    12    6   30 1    
    13    7    8 1    
    14    7   24 2    
    15    8    9 1    
    16    8   10 1    
    17    8   31 1    
    18    9   32 1    
    19    9   33 1    
    20   10   11 1    
    21   10   34 1    
    22   10   35 1    
    23   11   12 1    
    24   11   16 1    
    25   11   36 1    
    26   12   13 1    
    27   12   37 1    
    28   12   38 1    
    29   13   14 1    
    30   13   39 1    
    31   13   40 1    
    32   14   15 1    
    33   14   17 1    
    34   14   41 1    
    35   15   16 1    
    36   15   42 1    
    37   15   43 1    
    38   16   44 1    
    39   16   45 1    
    40   17   18 1    
    41   17   46 1    
    42   17   47 1    
    43   18   19 ar   
    44   18   23 ar   
    45   19   20 ar   
    46   19   48 1    
    47   20   21 ar   
    48   20   49 1    
    49   21   22 ar   
    50   21   50 1    
    51   22   23 ar   
    52   22   51 1    
    53   23   52 1    
    54   25   26 1    
    55   26   53 1    
    56   26   54 1    
    57   26   55 1    
    58   27   28 1    
    59   28   56 1    
    60   28   57 1    
    61   28   58 1    
@<TRIPOS>SUBSTRUCTURE
     1 E20         1 GROUP             0 A     ****    0 ROOT    
@<TRIPOS>MOLECULE
E20
58   61    1
SMALL
USER_CHARGES


@<TRIPOS>ATOM
      1 C1          2.7731   61.1721   72.2733 C.ar      1 E20         0.0850 
      2 C2          3.7093   61.3841   71.2113 C.ar      1 E20         0.0850 
      3 C3          3.5417   62.5000   70.3493 C.ar      1 E20        -0.1150 
      4 C4          2.4667   63.3531   70.5532 C.ar      1 E20        -0.1150 
      5 C5          1.5731   63.1366   71.5252 C.ar      1 E20        -0.1150 
      6 C6          1.6901   62.0730   72.4313 C.ar      1 E20        -0.1150 
      7 C7          0.5440   64.0886   71.4890 C.2       1 E20         0.5850 
      8 C8          0.8242   65.1251   70.3478 C.3       1 E20        -0.0600 
      9 C9          2.2138   64.5718   69.7177 C.3       1 E20        -0.0050 
     10 C10        -0.1916   65.2827   69.2069 C.3       1 E20        -0.1200 
     11 C11        -0.0783   66.6351   68.4512 C.3       1 E20        -0.0600 
     12 C12         1.2039   66.9241   67.6484 C.3       1 E20        -0.1200 
     13 C13         1.0133   68.1654   66.7469 C.3       1 E20         0.1500 
     14 N14        -0.0901   67.8586   65.7910 N.4       1 E20        -0.1000 
     15 C15        -1.3471   67.9035   66.5720 C.3       1 E20         0.1500 
     16 C16        -1.3155   66.7398   67.5319 C.3       1 E20        -0.1200 
     17 C17        -0.2441   68.6618   64.5622 C.3       1 E20         0.2650 
     18 C18         0.7631   68.5651   63.4038 C.ar      1 E20        -0.1150 
     19 C19         2.0774   68.0728   63.6039 C.ar      1 E20        -0.1150 
     20 C20         2.9883   68.0366   62.5302 C.ar      1 E20        -0.1150 
     21 C21         2.5921   68.4731   61.2551 C.ar      1 E20        -0.1150 
     22 C22         1.2833   68.9448   61.0490 C.ar      1 E20        -0.1150 
     23 C23         0.3730   68.9954   62.1191 C.ar      1 E20        -0.1150 
     24 O24        -0.4330   64.1454   72.2273 O.2       1 E20        -0.4700 
     25 O25         2.9062   60.1066   73.1318 O.3       1 E20        -0.2850 
     26 C26         2.9528   58.8213   72.5253 C.3       1 E20         0.1100 
     27 O27         4.7565   60.5172   71.0275 O.3       1 E20        -0.2850 
     28 C28         5.9854   61.1143   70.6610 C.3       1 E20         0.1100 
     29 H3          4.2242   62.6917   69.5412 H         1 E20         0.1150 
     30 H6          0.9598   61.9282   73.2145 H         1 E20         0.1150 
     31 H8          0.9779   66.0775   70.8391 H         1 E20         0.0600 
     32 H91         3.0333   65.2730   69.8518 H         1 E20         0.0600 
     33 H92         2.1553   64.2869   68.6743 H         1 E20         0.0600 
     34 H101       -0.1011   64.4163   68.5741 H         1 E20         0.0600 
     35 H102       -1.2269   65.1671   69.4890 H         1 E20         0.0600 
     36 H11        -0.0270   67.4249   69.1990 H         1 E20         0.0600 
     37 H121        1.5111   66.0746   67.0400 H         1 E20         0.0600 
     38 H122        2.0125   67.1182   68.3510 H         1 E20         0.0600 
     39 H131        0.7497   69.0319   67.3571 H         1 E20         0.0600 
     40 H132        1.9563   68.4597   66.3056 H         1 E20         0.0600 
     41 HN14        0.0324   66.9106   65.4635 H         1 E20         0.2900 
     42 H151       -1.4740   68.8541   67.0948 H         1 E20         0.0600 
     43 H152       -2.2206   67.7852   65.9279 H         1 E20         0.0600 
     44 H161       -1.2387   65.9204   66.8476 H         1 E20         0.0600 
     45 H162       -2.2588   66.6604   68.0724 H         1 E20         0.0600 
     46 H171       -1.1841   68.3548   64.1002 H         1 E20         0.0600 
     47 H172       -0.4318   69.6730   64.8918 H         1 E20         0.0600 
     48 H19         2.3933   67.7257   64.5640 H         1 E20         0.1150 
     49 H20         3.9921   67.6677   62.6856 H         1 E20         0.1150 
     50 H21         3.2916   68.4411   60.4317 H         1 E20         0.1150 
     51 H22         0.9781   69.2732   60.0667 H         1 E20         0.1150 
     52 H23        -0.6273   69.3711   61.9566 H         1 E20         0.1150 
     53 H261        2.5575   58.0822   73.2209 H         1 E20         0.0300 
     54 H262        3.9729   58.5261   72.2869 H         1 E20         0.0300 
     55 H263        2.3525   58.7730   71.6152 H         1 E20         0.0300 
     56 H281        6.6845   60.3616   70.2890 H         1 E20         0.0300 
     57 H282        6.3730   61.6525   71.5162 H         1 E20         0.0300 
     58 H283        5.9539   61.8592   69.8890 H         1 E20         0.0300 
@<TRIPOS>BOND
     1    1    2 ar   
     2    1    6 ar   
     3    1   25 1    
     4    2    3 ar   
     5    2   27 1    
     6    3    4 ar   
     7    3   29 1    
     8    4    5 ar   
     9    4    9 1    
    10    5    6 ar   
    11    5    7 1    
    12    6   30 1    
    13    7    8 1    
    14    7   24 2    
    15    8    9 1    
    16    8   10 1    
    17    8   31 1    
    18    9   32 1    
    19    9   33 1    
    20   10   11 1    
    21   10   34 1    
    22   10   35 1    
    23   11   12 1    
    24   11   16 1    
    25   11   36 1    
    26   12   13 1    
    27   12   37 1    
    28   12   38 1    
    29   13   14 1    
    30   13   39 1    
    31   13   40 1    
    32   14   15 1    
    33   14   17 1    
    34   14   41 1    
    35   15   16 1    
    36   15   42 1    
    37   15   43 1    
    38   16   44 1    
    39   16   45 1    
    40   17   18 1    
    41   17   46 1    
    42   17   47 1    
    43   18   19 ar   
    44   18   23 ar   
    45   19   20 ar   
    46   19   48 1    
    47   20   21 ar   
    48   20   49 1    
    49   21   22 ar   
    50   21   50 1    
    51   22   23 ar   
    52   22   51 1    
    53   23   52 1    
    54   25   26 1    
    55   26   53 1    
    56   26   54 1    
    57   26   55 1    
    58   27   28 1    
    59   28   56 1    
    60   28   57 1    
    61   28   58 1    
@<TRIPOS>SUBSTRUCTURE
     1 E20         1 GROUP             0 A     ****    0 ROOT    
@<TRIPOS>MOLECULE
E20
58   61    1
SMALL
USER_CHARGES


@<TRIPOS>ATOM
      1 C1          2.3177   58.0968   69.9269 C.ar      1 E20         0.0850 
      2 C2          1.4921   58.4729   68.8268 C.ar      1 E20         0.0850 
      3 C3          1.5691   59.7968   68.3142 C.ar      1 E20        -0.1150 
      4 C4          2.4281   60.7105   68.9319 C.ar      1 E20        -0.1150 
      5 C5          3.1904   60.3574   69.9779 C.ar      1 E20        -0.1150 
      6 C6          3.1890   59.0592   70.5071 C.ar      1 E20        -0.1150 
      7 C7          3.9285   61.4500   70.4592 C.2       1 E20         0.5850 
      8 C8          3.5190   62.7390   69.6923 C.3       1 E20        -0.0600 
      9 C9          2.5555   62.1563   68.5132 C.3       1 E20        -0.0050 
     10 C10         2.7266   63.7644   70.5489 C.3       1 E20        -0.1200 
     11 C11         1.5802   63.2403   71.4796 C.3       1 E20        -0.0600 
     12 C12         1.9903   62.8601   72.9203 C.3       1 E20        -0.1200 
     13 C13         0.8095   62.3195   73.7242 C.3       1 E20         0.1500 
     14 N14        -0.2528   63.3490   73.7935 N.4       1 E20        -0.1000 
     15 C15        -0.7403   63.7202   72.4419 C.3       1 E20         0.1500 
     16 C16         0.4004   64.2261   71.5374 C.3       1 E20        -0.1200 
     17 C17        -1.3280   63.0476   74.7743 C.3       1 E20         0.2650 
     18 C18        -2.0125   61.7020   74.5590 C.ar      1 E20        -0.1150 
     19 C19        -3.1143   61.6003   73.6838 C.ar      1 E20        -0.1150 
     20 C20        -3.7473   60.3570   73.4884 C.ar      1 E20        -0.1150 
     21 C21        -3.2814   59.2145   74.1673 C.ar      1 E20        -0.1150 
     22 C22        -2.1820   59.3132   75.0428 C.ar      1 E20        -0.1150 
     23 C23        -1.5484   60.5549   75.2399 C.ar      1 E20        -0.1150 
     24 O24         4.7701   61.4374   71.3560 O.2       1 E20        -0.4700 
     25 O25         2.2508   56.8163   70.4236 O.3       1 E20        -0.2850 
     26 C26         2.2147   56.6895   71.8379 C.3       1 E20         0.1100 
     27 O27         0.6146   57.5584   68.2878 O.3       1 E20        -0.2850 
     28 C28        -0.5841   58.0501   67.6976 C.3       1 E20         0.1100 
     29 H3          0.9520   60.1067   67.4870 H         1 E20         0.1150 
     30 H6          3.8166   58.8075   71.3490 H         1 E20         0.1150 
     31 H8          4.4022   63.2087   69.2576 H         1 E20         0.0600 
     32 H91         3.0109   62.2440   67.5276 H         1 E20         0.0600 
     33 H92         1.5752   62.6275   68.4969 H         1 E20         0.0600 
     34 H101        3.4266   64.3858   71.0888 H         1 E20         0.0600 
     35 H102        2.2866   64.4646   69.8382 H         1 E20         0.0600 
     36 H11         1.1753   62.3324   71.0616 H         1 E20         0.0600 
     37 H121        2.3722   63.7078   73.4794 H         1 E20         0.0600 
     38 H122        2.7771   62.1099   72.9204 H         1 E20         0.0600 
     39 H131        0.4292   61.4028   73.2704 H         1 E20         0.0600 
     40 H132        1.1442   62.0641   74.7300 H         1 E20         0.0600 
     41 HN14        0.1932   64.1809   74.1518 H         1 E20         0.2900 
     42 H151       -1.2372   62.8706   71.9748 H         1 E20         0.0600 
     43 H152       -1.4801   64.5061   72.5455 H         1 E20         0.0600 
     44 H161        0.7701   65.1905   71.8746 H         1 E20         0.0600 
     45 H162        0.0074   64.4034   70.5360 H         1 E20         0.0600 
     46 H171       -0.8940   63.0640   75.7747 H         1 E20         0.0600 
     47 H172       -2.0672   63.8486   74.7615 H         1 E20         0.0600 
     48 H19        -3.4735   62.4734   73.1624 H         1 E20         0.1150 
     49 H20        -4.5906   60.2786   72.8161 H         1 E20         0.1150 
     50 H21        -3.7677   58.2627   74.0172 H         1 E20         0.1150 
     51 H22        -1.8279   58.4353   75.5639 H         1 E20         0.1150 
     52 H23        -0.7066   60.6275   75.9142 H         1 E20         0.1150 
     53 H261        1.9552   55.6637   72.0981 H         1 E20         0.0300 
     54 H262        1.4586   57.3438   72.2726 H         1 E20         0.0300 
     55 H263        3.1729   56.9110   72.3011 H         1 E20         0.0300 
     56 H281       -1.3133   57.2432   67.6452 H         1 E20         0.0300 
     57 H282       -0.4271   58.4135   66.6832 H         1 E20         0.0300 
     58 H283       -1.0295   58.8516   68.2884 H         1 E20         0.0300 
@<TRIPOS>BOND
     1    1    2 ar   
     2    1    6 ar   
     3    1   25 1    
     4    2    3 ar   
     5    2   27 1    
     6    3    4 ar   
     7    3   29 1    
     8    4    5 ar   
     9    4    9 1    
    10    5    6 ar   
    11    5    7 1    
    12    6   30 1    
    13    7    8 1    
    14    7   24 2    
    15    8    9 1    
    16    8   10 1    
    17    8   31 1    
    18    9   32 1    
    19    9   33 1    
    20   10   11 1    
    21   10   34 1    
    22   10   35 1    
    23   11   12 1    
    24   11   16 1    
    25   11   36 1    
    26   12   13 1    
    27   12   37 1    
    28   12   38 1    
    29   13   14 1    
    30   13   39 1    
    31   13   40 1    
    32   14   15 1    
    33   14   17 1    
    34   14   41 1    
    35   15   16 1    
    36   15   42 1    
    37   15   43 1    
    38   16   44 1    
    39   16   45 1    
    40   17   18 1    
    41   17   46 1    
    42   17   47 1    
    43   18   19 ar   
    44   18   23 ar   
    45   19   20 ar   
    46   19   48 1    
    47   20   21 ar   
    48   20   49 1    
    49   21   22 ar   
    50   21   50 1    
    51   22   23 ar   
    52   22   51 1    
    53   23   52 1    
    54   25   26 1    
    55   26   53 1    
    56   26   54 1    
    57   26   55 1    
    58   27   28 1    
    59   28   56 1    
    60   28   57 1    
    61   28   58 1    
@<TRIPOS>SUBSTRUCTURE
     1 E20         1 GROUP             0 A     ****    0 ROOT    
@<TRIPOS>MOLECULE
E20
58   61    1
SMALL
USER_CHARGES


@<TRIPOS>ATOM
      1 C1          3.0215   60.6517   72.4615 C.ar      1 E20         0.0850 
      2 C2          3.8988   60.8174   71.3379 C.ar      1 E20         0.0850 
      3 C3          3.7355   61.9393   70.4863 C.ar      1 E20        -0.1150 
      4 C4          2.7183   62.8418   70.7502 C.ar      1 E20        -0.1150 
      5 C5          1.8768   62.6731   71.7857 C.ar      1 E20        -0.1150 
      6 C6          1.9969   61.6052   72.6890 C.ar      1 E20        -0.1150 
      7 C7          0.8960   63.6730   71.8066 C.2       1 E20         0.5850 
      8 C8          1.1624   64.6859   70.6445 C.3       1 E20        -0.0600 
      9 C9          2.4660   64.0603   69.9119 C.3       1 E20        -0.0050 
     10 C10         0.0576   64.9311   69.6375 C.3       1 E20        -0.1200 
     11 C11         0.1230   66.3450   69.0081 C.3       1 E20        -0.0600 
     12 C12         1.5185   66.6365   68.4584 C.3       1 E20        -0.1200 
     13 C13         1.5809   67.9034   67.6082 C.3       1 E20         0.1500 
     14 N14         0.6402   67.7915   66.4690 N.4       1 E20        -0.1000 
     15 C15        -0.7462   67.7421   66.9992 C.3       1 E20         0.1500 
     16 C16        -0.9279   66.5042   67.8875 C.3       1 E20        -0.1200 
     17 C17         0.8284   68.8730   65.4837 C.3       1 E20         0.2650 
     18 C18         1.6464   68.5520   64.2342 C.ar      1 E20        -0.1150 
     19 C19         1.0639   68.7063   62.9564 C.ar      1 E20        -0.1150 
     20 C20         1.8289   68.4730   61.7988 C.ar      1 E20        -0.1150 
     21 C21         3.1746   68.0731   61.9118 C.ar      1 E20        -0.1150 
     22 C22         3.7564   67.9073   63.1837 C.ar      1 E20        -0.1150 
     23 C23         2.9959   68.1492   64.3451 C.ar      1 E20        -0.1150 
     24 O24        -0.0384   63.7796   72.5975 O.2       1 E20        -0.4700 
     25 O25         3.1587   59.5816   73.3117 O.3       1 E20        -0.2850 
     26 C26         3.0314   58.3007   72.7092 C.3       1 E20         0.1100 
     27 O27         4.8864   59.8977   71.0890 O.3       1 E20        -0.2850 
     28 C28         5.9004   60.2711   70.1627 C.3       1 E20         0.1100 
     29 H3          4.3801   62.0954   69.6367 H         1 E20         0.1150 
     30 H6          1.3128   61.4978   73.5186 H         1 E20         0.1150 
     31 H8          1.3588   65.6518   71.0890 H         1 E20         0.0600 
     32 H91         3.3230   64.7331   69.9520 H         1 E20         0.0600 
     33 H92         2.2933   63.7590   68.8786 H         1 E20         0.0600 
     34 H101        0.0342   64.1551   68.8748 H         1 E20         0.0600 
     35 H102       -0.8270   64.8003   70.2046 H         1 E20         0.0600 
     36 H11        -0.0270   67.0836   69.7923 H         1 E20         0.0600 
     37 H121        1.8263   65.7683   67.8890 H         1 E20         0.0600 
     38 H122        2.2181   66.7483   69.2827 H         1 E20         0.0600 
     39 H131        1.3260   68.7718   68.2204 H         1 E20         0.0600 
     40 H132        2.6006   68.0730   67.2687 H         1 E20         0.0600 
     41 HN14        0.8165   66.9267   65.9778 H         1 E20         0.2900 
     42 H151       -0.9729   68.6571   67.5494 H         1 E20         0.0600 
     43 H152       -1.4579   67.6885   66.1730 H         1 E20         0.0600 
     44 H161       -0.8270   65.6733   67.2112 H         1 E20         0.0600 
     45 H162       -1.9408   66.4730   68.2891 H         1 E20         0.0600 
     46 H171       -0.1462   69.2465   65.1626 H         1 E20         0.0600 
     47 H172        1.3109   69.7125   65.9794 H         1 E20         0.0600 
     48 H19         0.0338   69.0211   62.8649 H         1 E20         0.1150 
     49 H20         1.3834   68.5997   60.8224 H         1 E20         0.1150 
     50 H21         3.7618   67.8936   61.0220 H         1 E20         0.1150 
     51 H22         4.7900   67.6033   63.2685 H         1 E20         0.1150 
     52 H23         3.4526   68.0378   65.3147 H         1 E20         0.1150 
     53 H261        2.7375   57.5752   73.4674 H         1 E20         0.0300 
     54 H262        3.9730   57.9593   72.2839 H         1 E20         0.0300 
     55 H263        2.2693   58.2912   71.9282 H         1 E20         0.0300 
     56 H281        6.7887   59.6730   70.2890 H         1 E20         0.0300 
     57 H282        6.2518   61.2929   70.3051 H         1 E20         0.0300 
     58 H283        5.5515   60.1272   69.1394 H         1 E20         0.0300 
@<TRIPOS>BOND
     1    1    2 ar   
     2    1    6 ar   
     3    1   25 1    
     4    2    3 ar   
     5    2   27 1    
     6    3    4 ar   
     7    3   29 1    
     8    4    5 ar   
     9    4    9 1    
    10    5    6 ar   
    11    5    7 1    
    12    6   30 1    
    13    7    8 1    
    14    7   24 2    
    15    8    9 1    
    16    8   10 1    
    17    8   31 1    
    18    9   32 1    
    19    9   33 1    
    20   10   11 1    
    21   10   34 1    
    22   10   35 1    
    23   11   12 1    
    24   11   16 1    
    25   11   36 1    
    26   12   13 1    
    27   12   37 1    
    28   12   38 1    
    29   13   14 1    
    30   13   39 1    
    31   13   40 1    
    32   14   15 1    
    33   14   17 1    
    34   14   41 1    
    35   15   16 1    
    36   15   42 1    
    37   15   43 1    
    38   16   44 1    
    39   16   45 1    
    40   17   18 1    
    41   17   46 1    
    42   17   47 1    
    43   18   19 ar   
    44   18   23 ar   
    45   19   20 ar   
    46   19   48 1    
    47   20   21 ar   
    48   20   49 1    
    49   21   22 ar   
    50   21   50 1    
    51   22   23 ar   
    52   22   51 1    
    53   23   52 1    
    54   25   26 1    
    55   26   53 1    
    56   26   54 1    
    57   26   55 1    
    58   27   28 1    
    59   28   56 1    
    60   28   57 1    
    61   28   58 1    
@<TRIPOS>SUBSTRUCTURE
     1 E20         1 GROUP             0 A     ****    0 ROOT    
