@<TRIPOS>MOLECULE
fluoranthene.pdb
 26 29 0 0 0
SMALL
GASTEIGER

@<TRIPOS>ATOM
      1  C1         0.9120    0.0020    0.1220 C.ar  900  UNK900     -0.0024
      2  C2         0.0940   -1.1360    0.1380 C.ar  900  UNK900     -0.0090
      3  C3         0.0960    1.1340    0.1410 C.ar  900  UNK900     -0.0090
      4  C4        -1.3040   -0.7010    0.1380 C.ar  900  UNK900     -0.0096
      5  C5        -1.3020    0.7010    0.1560 C.ar  900  UNK900     -0.0096
      6  C6         2.3120    0.0030    0.0820 C.ar  900  UNK900     -0.0167
      7  C7         0.7310   -2.3900    0.1520 C.ar  900  UNK900     -0.0534
      8  C8         0.7350    2.3920    0.1350 C.ar  900  UNK900     -0.0534
      9  C9        -2.5020   -1.4300    0.1090 C.ar  900  UNK900     -0.0534
     10  C10       -2.5000    1.4290    0.1720 C.ar  900  UNK900     -0.0534
     11  C11        2.9290   -1.2740    0.1090 C.ar  900  UNK900     -0.0540
     12  C12        2.9270    1.2750    0.0440 C.ar  900  UNK900     -0.0540
     13  C13        2.1480   -2.4550    0.1400 C.ar  900  UNK900     -0.0606
     14  C14        2.1460    2.4560    0.0700 C.ar  900  UNK900     -0.0606
     15  C15       -3.7210   -0.7090    0.1450 C.ar  900  UNK900     -0.0611
     16  C16       -3.7190    0.7100    0.1490 C.ar  900  UNK900     -0.0611
     17 H           0.1713   -3.2568    0.1709 H     900  UNK900      0.0624
     18 H           0.1767    3.2589    0.1777 H     900  UNK900      0.0624
     19 H          -2.4956   -2.4609    0.0628 H     900  UNK900      0.0624
     20 H          -2.4933    2.4606    0.1998 H     900  UNK900      0.0624
     21 H           3.9587   -1.3432    0.1060 H     900  UNK900      0.0624
     22 H           3.9556    1.3438   -0.0032 H     900  UNK900      0.0624
     23 H           2.6158   -3.3748    0.1540 H     900  UNK900      0.0618
     24 H           2.6130    3.3758    0.0411 H     900  UNK900      0.0618
     25 H          -4.6174   -1.2198    0.1685 H     900  UNK900      0.0618
     26 H          -4.6146    1.2225    0.1350 H     900  UNK900      0.0618
@<TRIPOS>BOND
     1     1     2   ar
     2     1     3   ar
     3     1     6   ar
     4     2     4    1
     5     2     7   ar
     6     3     5    1
     7     3     8   ar
     8     4     5   ar
     9     4     9   ar
    10     5    10   ar
    11     6    11   ar
    12     6    12   ar
    13     7    13   ar
    14     8    14   ar
    15     9    15   ar
    16    10    16   ar
    17    11    13   ar
    18    12    14   ar
    19    15    16   ar
    20     7    17    1
    21     8    18    1
    22     9    19    1
    23    10    20    1
    24    11    21    1
    25    12    22    1
    26    13    23    1
    27    14    24    1
    28    15    25    1
    29    16    26    1
