@<TRIPOS>MOLECULE
FXA101_1
49 51 1 0 0 
SMALL
USER_CHARGES


@<TRIPOS>ATOM
  1 N1       6.8420     9.9900    22.7430 N.am  1 Q101  -0.8960 
  2 S1       8.1400     9.2310    23.3330 S.o2  1 Q101   1.3220 
  3 N2       4.4000     9.1300    20.4710 N.am  1 Q101  -0.3970 
  4 N3       3.0930     7.5030    14.2800 N.am  1 Q101  -0.4840 
  5 O3       6.5760     8.3830    20.3400 O.2   1 Q101  -0.6040 
  6 O4       2.6850     9.6850    14.3930 O.2   1 Q101  -0.6060 
  7 C7       2.2280     7.4110    13.0930 C.3   1 Q101   0.0840 
  8 C8       3.9480     6.3480    14.5990 C.3   1 Q101   0.0840 
  9 C12      5.6510     9.2330    22.4370 C.3   1 Q101   0.1690 
 10 C13      4.3540    10.0220    22.6400 C.3   1 Q101  -0.1080 
 11 C14      3.4610     9.6140    21.4730 C.3   1 Q101   0.1020 
 12 C15      4.0450     8.9850    19.0930 C.ar  1 Q101   0.0330 
 13 C21      4.8560     9.4860    18.0840 C.ar  1 Q101  -0.1060 
 14 C22      2.8610     8.3620    18.7270 C.ar  1 Q101   0.1210 
 15 C24      4.5070     9.3620    16.7550 C.ar  1 Q101  -0.0920 
 16 C26      2.4770     8.2190    17.4030 C.ar  1 Q101  -0.1400 
 17 C27      3.3220     8.7250    16.4150 C.ar  1 Q101  -0.1150 
 18 C28      3.0140     8.6530    14.9560 C.2   1 Q101   0.6760 
 19 C50      5.6340     8.8540    20.9610 C.2   1 Q101   0.6950 
 20 F1       2.0670     7.8840    19.6990 F     1 Q101  -0.1400 
 21 O1       8.8810    10.2610    23.9930 O.2   1 Q101  -0.5930 
 22 CL1     13.7140     7.5120    25.7230 Cl    1 Q101  -0.0550 
 23 C1      12.0240     7.5430    26.0980 C.2   1 Q101   0.0330 
 24 C2      11.4410     7.1410    27.2530 C.2   1 Q101  -0.1460 
 25 S2      10.9140     8.1380    24.9280 S.3   1 Q101   0.0240 
 26 C3      10.0540     7.3070    27.2020 C.2   1 Q101  -0.1130 
 27 C4       9.5920     7.8360    26.0030 C.2   1 Q101  -0.0920 
 28 C5       8.1780     8.0980    25.7100 C.2   1 Q101   0.0810 
 29 C6       7.6020     8.0680    24.5090 C.2   1 Q101  -0.4200 
 30 O2       8.6620     8.5580    22.1770 O.2   1 Q101  -0.5930 
 31 H142     2.8750    10.4530    21.0840 H     1 Q101   0.0600 
 32 H141     2.7930     8.7930    21.7530 H     1 Q101   0.0600 
 33 H132     3.8910     9.8220    23.6100 H     1 Q101   0.0720 
 34 H131     4.5540    11.1000    22.5880 H     1 Q101   0.0720 
 35 H83      3.3600     5.6100    15.1400 H     1 Q101   0.0490 
 36 H82      4.3320     5.9210    13.6680 H     1 Q101   0.0490 
 37 H81      4.7860     6.6870    15.2030 H     1 Q101   0.0490 
 38 H73      2.5530     8.1620    12.3690 H     1 Q101   0.0490 
 39 H72      2.2830     6.4120    12.6530 H     1 Q101   0.0490 
 40 H71      1.1920     7.6290    13.3750 H     1 Q101   0.0490 
 41 H6       6.8360     7.3660    24.2130 H     1 Q101   0.1940 
 42 H5       7.5750     8.2810    26.5990 H     1 Q101   0.1560 
 43 H3       9.3940     7.0620    28.0290 H     1 Q101   0.1600 
 44 H26      1.5500     7.7200    17.1560 H     1 Q101   0.1600 
 45 H24      5.1410     9.7940    15.9920 H     1 Q101   0.1630 
 46 H21      5.7800    10.0010    18.3330 H     1 Q101   0.1530 
 47 H2      11.9710     6.7500    28.1100 H     1 Q101   0.1720 
 48 H12      5.5880     8.2970    23.0050 H     1 Q101   0.0910 
 49 H1       7.0200    10.8210    22.1720 H     1 Q101   0.4670 
@<TRIPOS>BOND
  1   1   2  am  
  2   1   9  1   
  3   1  49  1   
  4   2  21  2   
  5   2  29  1   
  6   2  30  2   
  7   3  11  1   
  8   3  12  1   
  9   3  19  am  
 10   4   7  1   
 11   4   8  1   
 12   4  18  am  
 13   5  19  2   
 14   6  18  2   
 15   7  38  1   
 16   7  39  1   
 17   7  40  1   
 18   8  35  1   
 19   8  36  1   
 20   8  37  1   
 21   9  10  1   
 22   9  19  1   
 23   9  48  1   
 24  10  11  1   
 25  10  33  1   
 26  10  34  1   
 27  11  31  1   
 28  11  32  1   
 29  12  13  ar  
 30  12  14  ar  
 31  13  15  ar  
 32  13  46  1   
 33  14  16  ar  
 34  14  20  1   
 35  15  17  ar  
 36  15  45  1   
 37  16  17  ar  
 38  16  44  1   
 39  17  18  1   
 40  22  23  1   
 41  23  24  2   
 42  23  25  1   
 43  24  26  1   
 44  24  47  1   
 45  25  27  1   
 46  26  27  2   
 47  26  43  1   
 48  27  28  1   
 49  28  29  2   
 50  28  42  1   
 51  29  41  1   
@<TRIPOS>SUBSTRUCTURE
  1 Q101  19 GROUP 4 **** **** 0

# MOE 2011.10 (io_trps.svl 2011.10)

@<TRIPOS>MOLECULE
FXA101_2
49 51 1 0 0 
SMALL
USER_CHARGES


@<TRIPOS>ATOM
  1 N1       6.6710     9.9330    22.9940 N.am  1 Q101  -0.8960 
  2 S1       8.1430     9.4530    23.4530 S.o2  1 Q101   1.3220 
  3 N2       4.8800    10.6210    20.1330 N.am  1 Q101  -0.3970 
  4 N3       3.7280    14.9060    15.3230 N.am  1 Q101  -0.4840 
  5 O3       7.0100    11.4100    20.5170 O.2   1 Q101  -0.6040 
  6 O4       2.1510    15.2890    16.8410 O.2   1 Q101  -0.6060 
  7 C7       3.7740    16.3290    14.9520 C.3   1 Q101   0.0840 
  8 C8       4.3520    13.9360    14.4080 C.3   1 Q101   0.0840 
  9 C12      6.1350     9.4780    21.7320 C.3   1 Q101   0.1690 
 10 C13      4.6800     9.0040    21.8190 C.3   1 Q101  -0.1080 
 11 C14      4.0240     9.5160    20.5420 C.3   1 Q101   0.1020 
 12 C15      4.4530    11.6170    19.1980 C.ar  1 Q101   0.0330 
 13 C21      4.3540    12.9520    19.5640 C.ar  1 Q101  -0.1060 
 14 C22      4.0990    11.2690    17.9030 C.ar  1 Q101   0.1210 
 15 C24      3.9270    13.9120    18.6680 C.ar  1 Q101  -0.0920 
 16 C26      3.6650    12.2040    16.9770 C.ar  1 Q101  -0.1400 
 17 C27      3.5880    13.5390    17.3760 C.ar  1 Q101  -0.1150 
 18 C28      3.1180    14.6380    16.4810 C.2   1 Q101   0.6760 
 19 C50      6.0960    10.6280    20.7320 C.2   1 Q101   0.6950 
 20 F1       4.1830     9.9770    17.5460 F     1 Q101  -0.1400 
 21 O1       8.5950    10.4900    24.3280 O.2   1 Q101  -0.5930 
 22 CL1     14.0520     7.2860    26.8930 Cl    1 Q101  -0.0550 
 23 C1      12.5460     7.5800    26.0910 C.2   1 Q101   0.0330 
 24 C2      12.3740     8.0220    24.8220 C.2   1 Q101  -0.1460 
 25 S2      11.0750     7.2980    26.9350 S.3   1 Q101   0.0240 
 26 C3      11.0180     8.1480    24.5100 C.2   1 Q101  -0.1130 
 27 C4      10.1650     7.7980    25.5500 C.2   1 Q101  -0.0920 
 28 C5       8.7000     7.8490    25.4660 C.2   1 Q101   0.0810 
 29 C6       7.9770     7.9750    24.3540 C.2   1 Q101  -0.4200 
 30 O2       8.7950     9.1970    22.2000 O.2   1 Q101  -0.5930 
 31 H142     2.9990     9.8600    20.7100 H     1 Q101   0.0600 
 32 H141     4.0360     8.7540    19.7560 H     1 Q101   0.0600 
 33 H132     4.6010     7.9180    21.9220 H     1 Q101   0.0720 
 34 H131     4.1880     9.4540    22.6900 H     1 Q101   0.0720 
 35 H83      3.6530    13.7030    13.6080 H     1 Q101   0.0490 
 36 H82      5.2690    14.3700    13.9980 H     1 Q101   0.0490 
 37 H81      4.6060    13.0390    14.9670 H     1 Q101   0.0490 
 38 H73      4.3750    16.8620    15.6930 H     1 Q101   0.0490 
 39 H72      4.2050    16.4530    13.9550 H     1 Q101   0.0490 
 40 H71      2.7610    16.7450    14.9660 H     1 Q101   0.0490 
 41 H6       7.3080     7.2200    23.9680 H     1 Q101   0.1940 
 42 H5       8.2040     7.7180    26.4260 H     1 Q101   0.1560 
 43 H3      10.6570     8.4720    23.5390 H     1 Q101   0.1600 
 44 H26      3.4050    11.8960    15.9730 H     1 Q101   0.1600 
 45 H24      3.8260    14.9390    18.9930 H     1 Q101   0.1630 
 46 H21      4.6020    13.2600    20.5770 H     1 Q101   0.1530 
 47 H2      13.1750     8.2440    24.1300 H     1 Q101   0.1720 
 48 H12      6.7390     8.6830    21.2780 H     1 Q101   0.0910 
 49 H1       6.3700    10.8570    23.3150 H     1 Q101   0.4670 
@<TRIPOS>BOND
  1   1   2  am  
  2   1   9  1   
  3   1  49  1   
  4   2  21  2   
  5   2  29  1   
  6   2  30  2   
  7   3  11  1   
  8   3  12  1   
  9   3  19  am  
 10   4   7  1   
 11   4   8  1   
 12   4  18  am  
 13   5  19  2   
 14   6  18  2   
 15   7  38  1   
 16   7  39  1   
 17   7  40  1   
 18   8  35  1   
 19   8  36  1   
 20   8  37  1   
 21   9  10  1   
 22   9  19  1   
 23   9  48  1   
 24  10  11  1   
 25  10  33  1   
 26  10  34  1   
 27  11  31  1   
 28  11  32  1   
 29  12  13  ar  
 30  12  14  ar  
 31  13  15  ar  
 32  13  46  1   
 33  14  16  ar  
 34  14  20  1   
 35  15  17  ar  
 36  15  45  1   
 37  16  17  ar  
 38  16  44  1   
 39  17  18  1   
 40  22  23  1   
 41  23  24  2   
 42  23  25  1   
 43  24  26  1   
 44  24  47  1   
 45  25  27  1   
 46  26  27  2   
 47  26  43  1   
 48  27  28  1   
 49  28  29  2   
 50  28  42  1   
 51  29  41  1   
@<TRIPOS>SUBSTRUCTURE
  1 Q101  19 GROUP 4 **** **** 0

# MOE 2011.10 (io_trps.svl 2011.10)

@<TRIPOS>MOLECULE
FXA101_3
49 51 1 0 0 
SMALL
USER_CHARGES


@<TRIPOS>ATOM
  1 N1       6.2140     9.2650    21.0970 N.am  1 Q101  -0.8960 
  2 S1       6.6190    10.3830    22.1900 S.o2  1 Q101   1.3220 
  3 N2       6.0050     5.9140    20.3260 N.am  1 Q101  -0.3970 
  4 N3       9.1230     1.2300    17.1160 N.am  1 Q101  -0.4840 
  5 O3       8.0010     7.0500    20.5200 O.2   1 Q101  -0.6040 
  6 O4       7.0750     1.0950    16.2610 O.2   1 Q101  -0.6060 
  7 C7       9.6740     0.6050    15.9030 C.3   1 Q101   0.0840 
  8 C8      10.0000     1.3400    18.2930 C.3   1 Q101   0.0840 
  9 C12      5.9470     7.9120    21.5280 C.3   1 Q101   0.1690 
 10 C13      4.5080     7.4570    21.2620 C.3   1 Q101  -0.1080 
 11 C14      4.6340     6.0080    20.8050 C.3   1 Q101   0.1020 
 12 C15      6.4510     4.8510    19.4780 C.ar  1 Q101   0.0330 
 13 C21      6.7590     3.6000    19.9930 C.ar  1 Q101  -0.1060 
 14 C22      6.6160     5.0520    18.1160 C.ar  1 Q101   0.1210 
 15 C24      7.2050     2.5780    19.1790 C.ar  1 Q101  -0.0920 
 16 C26      7.0620     4.0520    17.2680 C.ar  1 Q101  -0.1400 
 17 C27      7.3510     2.8020    17.8180 C.ar  1 Q101  -0.1150 
 18 C28      7.8580     1.6490    17.0170 C.2   1 Q101   0.6760 
 19 C50      6.8040     6.9310    20.7370 C.2   1 Q101   0.6950 
 20 F1       6.3290     6.2640    17.6120 F     1 Q101  -0.1400 
 21 O1       5.6060    10.2780    23.1940 O.2   1 Q101  -0.5930 
 22 CL1     11.7960     6.9810    27.5470 Cl    1 Q101  -0.0550 
 23 C1      10.9970     7.7430    26.2140 C.2   1 Q101   0.0330 
 24 C2      11.5800     8.2680    25.1100 C.2   1 Q101  -0.1460 
 25 S2       9.2820     7.8760    26.2260 S.3   1 Q101   0.0240 
 26 C3      10.6250     8.8050    24.2410 C.2   1 Q101  -0.1130 
 27 C4       9.3170     8.6820    24.6940 C.2   1 Q101  -0.0920 
 28 C5       8.1430     9.1700    23.9620 C.2   1 Q101   0.0810 
 29 C6       8.1540     9.9430    22.8760 C.2   1 Q101  -0.4200 
 30 O2       6.7570    11.5680    21.3900 O.2   1 Q101  -0.5930 
 31 H142     3.9250     5.7610    20.0090 H     1 Q101   0.0600 
 32 H141     4.5070     5.3150    21.6430 H     1 Q101   0.0600 
 33 H132     3.8690     7.5630    22.1430 H     1 Q101   0.0720 
 34 H131     4.0640     8.0580    20.4590 H     1 Q101   0.0720 
 35 H83      9.9890     0.3940    18.8310 H     1 Q101   0.0490 
 36 H82     11.0140     1.5790    17.9620 H     1 Q101   0.0490 
 37 H81      9.6370     2.1440    18.9280 H     1 Q101   0.0490 
 38 H73      9.7100     1.3580    15.1110 H     1 Q101   0.0490 
 39 H72     10.6760     0.2110    16.0950 H     1 Q101   0.0490 
 40 H71      9.0170    -0.2080    15.5780 H     1 Q101   0.0490 
 41 H6       9.0480    10.3240    22.4040 H     1 Q101   0.1940 
 42 H5       7.1980     8.7960    24.3540 H     1 Q101   0.1560 
 43 H3      10.8750     9.2620    23.2890 H     1 Q101   0.1600 
 44 H26      7.1710     4.2430    16.2080 H     1 Q101   0.1600 
 45 H24      7.4710     1.6250    19.6150 H     1 Q101   0.1630 
 46 H21      6.6640     3.4110    21.0600 H     1 Q101   0.1530 
 47 H2      12.6430     8.2700    24.9120 H     1 Q101   0.1720 
 48 H12      6.1790     7.7520    22.5870 H     1 Q101   0.0910 
 49 H1       6.6050     9.3810    20.1580 H     1 Q101   0.4670 
@<TRIPOS>BOND
  1   1   2  am  
  2   1   9  1   
  3   1  49  1   
  4   2  21  2   
  5   2  29  1   
  6   2  30  2   
  7   3  11  1   
  8   3  12  1   
  9   3  19  am  
 10   4   7  1   
 11   4   8  1   
 12   4  18  am  
 13   5  19  2   
 14   6  18  2   
 15   7  38  1   
 16   7  39  1   
 17   7  40  1   
 18   8  35  1   
 19   8  36  1   
 20   8  37  1   
 21   9  10  1   
 22   9  19  1   
 23   9  48  1   
 24  10  11  1   
 25  10  33  1   
 26  10  34  1   
 27  11  31  1   
 28  11  32  1   
 29  12  13  ar  
 30  12  14  ar  
 31  13  15  ar  
 32  13  46  1   
 33  14  16  ar  
 34  14  20  1   
 35  15  17  ar  
 36  15  45  1   
 37  16  17  ar  
 38  16  44  1   
 39  17  18  1   
 40  22  23  1   
 41  23  24  2   
 42  23  25  1   
 43  24  26  1   
 44  24  47  1   
 45  25  27  1   
 46  26  27  2   
 47  26  43  1   
 48  27  28  1   
 49  28  29  2   
 50  28  42  1   
 51  29  41  1   
@<TRIPOS>SUBSTRUCTURE
  1 Q101   5 GROUP 4 **** **** 0

# MOE 2011.10 (io_trps.svl 2011.10)

@<TRIPOS>MOLECULE
FXA101_4
49 51 1 0 0 
SMALL
USER_CHARGES


@<TRIPOS>ATOM
  1 N1       3.6150     7.0890    16.7950 N.am  1 Q101  -0.8960 
  2 S1       3.2850     6.2460    15.4580 S.o2  1 Q101   1.3220 
  3 N2       5.5120     9.4740    18.4020 N.am  1 Q101  -0.3970 
  4 N3       8.8210     9.9520    23.9780 N.am  1 Q101  -0.4840 
  5 O3       6.1600     7.2740    18.1790 O.2   1 Q101  -0.6040 
  6 O4       8.8700    12.0240    23.1770 O.2   1 Q101  -0.6060 
  7 C7      10.1740     9.3770    23.9120 C.3   1 Q101   0.0840 
  8 C8       7.9300     9.4890    25.0540 C.3   1 Q101   0.0840 
  9 C12      4.4680     8.2520    16.7120 C.3   1 Q101   0.1690 
 10 C13      3.7180     9.5760    16.8940 C.3   1 Q101  -0.1080 
 11 C14      4.6510    10.4400    17.7360 C.3   1 Q101   0.1020 
 12 C15      6.2900     9.8050    19.5550 C.ar  1 Q101   0.0330 
 13 C21      5.7230     9.8440    20.8210 C.ar  1 Q101  -0.1060 
 14 C22      7.6350    10.1260    19.4350 C.ar  1 Q101   0.1210 
 15 C24      6.4690    10.1800    21.9320 C.ar  1 Q101  -0.0920 
 16 C26      8.4150    10.4690    20.5270 C.ar  1 Q101  -0.1400 
 17 C27      7.8140    10.4870    21.7860 C.ar  1 Q101  -0.1150 
 18 C28      8.5390    10.8580    23.0370 C.2   1 Q101   0.6760 
 19 C50      5.4880     8.2370    17.8440 C.2   1 Q101   0.6950 
 20 F1       8.1880    10.1000    18.2110 F     1 Q101  -0.1400 
 21 O1       3.5100     7.1730    14.3920 O.2   1 Q101  -0.5930 
 22 CL1      2.8180     2.9750    21.1640 Cl    1 Q101  -0.0550 
 23 C1       3.7400     3.1420    19.7080 C.2   1 Q101   0.0330 
 24 C2       4.6190     2.2480    19.1950 C.2   1 Q101  -0.1460 
 25 S2       3.5660     4.5680    18.7620 S.3   1 Q101   0.0240 
 26 C3       5.1830     2.7180    18.0060 C.2   1 Q101  -0.1130 
 27 C4       4.7250     3.9720    17.6220 C.2   1 Q101  -0.0920 
 28 C5       5.1700     4.6760    16.4130 C.2   1 Q101   0.0810 
 29 C6       4.4310     4.9450    15.3380 C.2   1 Q101  -0.4200 
 30 O2       1.9740     5.7260    15.7300 O.2   1 Q101  -0.5930 
 31 H142     4.1080    11.0470    18.4680 H     1 Q101   0.0600 
 32 H141     5.2700    11.0860    17.1060 H     1 Q101   0.0600 
 33 H132     3.4620    10.0450    15.9400 H     1 Q101   0.0720 
 34 H131     2.7820     9.4080    17.4400 H     1 Q101   0.0720 
 35 H83      7.4680     8.5510    24.7530 H     1 Q101   0.0490 
 36 H82      8.5150     9.3500    25.9670 H     1 Q101   0.0490 
 37 H81      7.1720    10.2480    25.2330 H     1 Q101   0.0490 
 38 H73     10.8990    10.1750    24.0930 H     1 Q101   0.0490 
 39 H72     10.2920     8.5840    24.6540 H     1 Q101   0.0490 
 40 H71     10.3530     8.9710    22.9100 H     1 Q101   0.0490 
 41 H6       4.5040     4.4200    14.3960 H     1 Q101   0.1940 
 42 H5       6.1970     5.0370    16.4730 H     1 Q101   0.1560 
 43 H3       5.9010     2.1510    17.4220 H     1 Q101   0.1600 
 44 H26      9.4630    10.7050    20.3960 H     1 Q101   0.1600 
 45 H24      5.9910    10.2370    22.9010 H     1 Q101   0.1630 
 46 H21      4.6670     9.6210    20.9520 H     1 Q101   0.1530 
 47 H2       4.8540     1.2890    19.6370 H     1 Q101   0.1720 
 48 H12      5.0350     8.2940    15.7750 H     1 Q101   0.0910 
 49 H1       3.6370     6.5640    17.6730 H     1 Q101   0.4670 
@<TRIPOS>BOND
  1   1   2  am  
  2   1   9  1   
  3   1  49  1   
  4   2  21  2   
  5   2  29  1   
  6   2  30  2   
  7   3  11  1   
  8   3  12  1   
  9   3  19  am  
 10   4   7  1   
 11   4   8  1   
 12   4  18  am  
 13   5  19  2   
 14   6  18  2   
 15   7  38  1   
 16   7  39  1   
 17   7  40  1   
 18   8  35  1   
 19   8  36  1   
 20   8  37  1   
 21   9  10  1   
 22   9  19  1   
 23   9  48  1   
 24  10  11  1   
 25  10  33  1   
 26  10  34  1   
 27  11  31  1   
 28  11  32  1   
 29  12  13  ar  
 30  12  14  ar  
 31  13  15  ar  
 32  13  46  1   
 33  14  16  ar  
 34  14  20  1   
 35  15  17  ar  
 36  15  45  1   
 37  16  17  ar  
 38  16  44  1   
 39  17  18  1   
 40  22  23  1   
 41  23  24  2   
 42  23  25  1   
 43  24  26  1   
 44  24  47  1   
 45  25  27  1   
 46  26  27  2   
 47  26  43  1   
 48  27  28  1   
 49  28  29  2   
 50  28  42  1   
 51  29  41  1   
@<TRIPOS>SUBSTRUCTURE
  1 Q101   5 GROUP 4 **** **** 0

# MOE 2011.10 (io_trps.svl 2011.10)

@<TRIPOS>MOLECULE
FXA101_5
49 51 1 0 0 
SMALL
USER_CHARGES


@<TRIPOS>ATOM
  1 N1      -3.4560     9.9700    13.3950 N.am  1 Q101  -0.8960 
  2 S1      -4.1000    10.4380    11.9900 S.o2  1 Q101   1.3220 
  3 N2      -2.0290    11.5400    16.1100 N.am  1 Q101  -0.3970 
  4 N3       3.8680    13.6700    17.7860 N.am  1 Q101  -0.4840 
  5 O3      -1.7480    12.2540    13.9370 O.2   1 Q101  -0.6040 
  6 O4       2.6250    14.2490    19.5350 O.2   1 Q101  -0.6060 
  7 C7       4.9910    13.1800    18.5990 C.3   1 Q101   0.0840 
  8 C8       4.1340    14.0080    16.3780 C.3   1 Q101   0.0840 
  9 C12     -3.6140    10.8050    14.5640 C.3   1 Q101   0.1690 
 10 C13     -3.7920    10.0130    15.8630 C.3   1 Q101  -0.1080 
 11 C14     -2.9850    10.7810    16.9040 C.3   1 Q101   0.1020 
 12 C15     -0.8480    12.1160    16.6740 C.ar  1 Q101   0.0330 
 13 C21      0.2900    11.3530    16.8960 C.ar  1 Q101  -0.1060 
 14 C22     -0.8160    13.4530    17.0420 C.ar  1 Q101   0.1210 
 15 C24      1.4250    11.9040    17.4550 C.ar  1 Q101  -0.0920 
 16 C26      0.3040    14.0400    17.6070 C.ar  1 Q101  -0.1400 
 17 C27      1.4340    13.2460    17.8050 C.ar  1 Q101  -0.1150 
 18 C28      2.6960    13.7520    18.4220 C.2   1 Q101   0.6760 
 19 C50     -2.3520    11.6280    14.7950 C.2   1 Q101   0.6950 
 20 F1      -1.9180    14.1940    16.8380 F     1 Q101  -0.1400 
 21 O1      -3.4030    11.6450    11.6680 O.2   1 Q101  -0.5930 
 22 CL1      0.1720     6.7340     6.0620 Cl    1 Q101  -0.0550 
 23 C1      -0.9560     7.2450     7.2730 C.2   1 Q101   0.0330 
 24 C2      -2.1100     6.6260     7.6200 C.2   1 Q101  -0.1460 
 25 S2      -0.6360     8.6760     8.1690 S.3   1 Q101   0.0240 
 26 C3      -2.7700     7.3230     8.6350 C.2   1 Q101  -0.1130 
 27 C4      -2.1090     8.4720     9.0540 C.2   1 Q101  -0.0920 
 28 C5      -2.6050     9.3700    10.1030 C.2   1 Q101   0.0810 
 29 C6      -3.7360     9.2290    10.7950 C.2   1 Q101  -0.4200 
 30 O2      -5.5070    10.4420    12.2750 O.2   1 Q101  -0.5930 
 31 H142    -2.4690    10.1170    17.6040 H     1 Q101   0.0600 
 32 H141    -3.6170    11.4840    17.4570 H     1 Q101   0.0600 
 33 H132    -4.8440     9.9060    16.1460 H     1 Q101   0.0720 
 34 H131    -3.3780     9.0030    15.7510 H     1 Q101   0.0720 
 35 H83      4.5500    15.0120    16.3270 H     1 Q101   0.0490 
 36 H82      4.8390    13.2820    15.9640 H     1 Q101   0.0490 
 37 H81      3.2020    13.9520    15.8210 H     1 Q101   0.0490 
 38 H73      4.7820    12.1480    18.8950 H     1 Q101   0.0490 
 39 H72      5.9260    13.2280    18.0340 H     1 Q101   0.0490 
 40 H71      5.0810    13.7860    19.5070 H     1 Q101   0.0490 
 41 H6      -4.4440     8.4260    10.6550 H     1 Q101   0.1940 
 42 H5      -1.9230    10.1870    10.3360 H     1 Q101   0.1560 
 43 H3      -3.7070     6.9930     9.0730 H     1 Q101   0.1600 
 44 H26      0.2940    15.0890    17.8740 H     1 Q101   0.1600 
 45 H24      2.2840    11.2760    17.6490 H     1 Q101   0.1630 
 46 H21      0.2960    10.2960    16.6410 H     1 Q101   0.1530 
 47 H2      -2.4770     5.7090     7.1800 H     1 Q101   0.1720 
 48 H12     -4.4420    11.5160    14.4670 H     1 Q101   0.0910 
 49 H1      -2.6030     9.4080    13.3430 H     1 Q101   0.4670 
@<TRIPOS>BOND
  1   1   2  am  
  2   1   9  1   
  3   1  49  1   
  4   2  21  2   
  5   2  29  1   
  6   2  30  2   
  7   3  11  1   
  8   3  12  1   
  9   3  19  am  
 10   4   7  1   
 11   4   8  1   
 12   4  18  am  
 13   5  19  2   
 14   6  18  2   
 15   7  38  1   
 16   7  39  1   
 17   7  40  1   
 18   8  35  1   
 19   8  36  1   
 20   8  37  1   
 21   9  10  1   
 22   9  19  1   
 23   9  48  1   
 24  10  11  1   
 25  10  33  1   
 26  10  34  1   
 27  11  31  1   
 28  11  32  1   
 29  12  13  ar  
 30  12  14  ar  
 31  13  15  ar  
 32  13  46  1   
 33  14  16  ar  
 34  14  20  1   
 35  15  17  ar  
 36  15  45  1   
 37  16  17  ar  
 38  16  44  1   
 39  17  18  1   
 40  22  23  1   
 41  23  24  2   
 42  23  25  1   
 43  24  26  1   
 44  24  47  1   
 45  25  27  1   
 46  26  27  2   
 47  26  43  1   
 48  27  28  1   
 49  28  29  2   
 50  28  42  1   
 51  29  41  1   
@<TRIPOS>SUBSTRUCTURE
  1 Q101   5 GROUP 4 **** **** 0

# MOE 2011.10 (io_trps.svl 2011.10)

@<TRIPOS>MOLECULE
FXA101_6
49 51 1 0 0 
SMALL
USER_CHARGES


@<TRIPOS>ATOM
  1 N1       0.2000     9.9260    14.5910 N.am  1 Q101  -0.8960 
  2 S1      -0.9480     9.5520    13.5180 S.o2  1 Q101   1.3220 
  3 N2       2.5130     8.9140    16.9340 N.am  1 Q101  -0.3970 
  4 N3       7.0560     9.5160    21.5420 N.am  1 Q101  -0.4840 
  5 O3       0.9410    10.5520    17.3270 O.2   1 Q101  -0.6040 
  6 O4       6.7350    11.6120    20.8770 O.2   1 Q101  -0.6060 
  7 C7       6.7470     8.1170    21.2070 C.3   1 Q101   0.0840 
  8 C8       8.0050     9.7670    22.6380 C.3   1 Q101   0.0840 
  9 C12      0.6530     8.9240    15.5280 C.3   1 Q101   0.1690 
 10 C13      1.7040     7.9720    14.9460 C.3   1 Q101  -0.1080 
 11 C14      2.7030     7.7540    16.0760 C.3   1 Q101   0.1020 
 12 C15      3.4790     9.3130    17.9120 C.ar  1 Q101   0.0330 
 13 C21      4.8150     9.4820    17.5770 C.ar  1 Q101  -0.1060 
 14 C22      3.1090     9.5150    19.2330 C.ar  1 Q101   0.1210 
 15 C24      5.7510     9.8510    18.5220 C.ar  1 Q101  -0.0920 
 16 C26      4.0200     9.8840    20.2100 C.ar  1 Q101  -0.1400 
 17 C27      5.3530    10.0560    19.8350 C.ar  1 Q101  -0.1150 
 18 C28      6.4330    10.4320    20.7940 C.2   1 Q101   0.6760 
 19 C50      1.3570     9.5860    16.7060 C.2   1 Q101   0.6950 
 20 F1       1.8190     9.3430    19.5660 F     1 Q101  -0.1400 
 21 O1      -1.1230     8.1400    13.6660 O.2   1 Q101  -0.5930 
 22 CL1     -5.2010     5.0410    15.6910 Cl    1 Q101  -0.0550 
 23 C1      -4.4800     6.5950    15.9440 C.2   1 Q101   0.0330 
 24 C2      -4.1810     7.1680    17.1350 C.2   1 Q101  -0.1460 
 25 S2      -4.0690     7.5630    14.5840 S.3   1 Q101   0.0240 
 26 C3      -3.6100     8.4310    16.9590 C.2   1 Q101  -0.1130 
 27 C4      -3.4770     8.8100    15.6290 C.2   1 Q101  -0.0920 
 28 C5      -2.9090    10.0900    15.1900 C.2   1 Q101   0.0810 
 29 C6      -2.4140    10.3630    13.9840 C.2   1 Q101  -0.4200 
 30 O2      -0.4360    10.1170    12.3020 O.2   1 Q101  -0.5930 
 31 H142     3.7350     7.7020    15.7150 H     1 Q101   0.0600 
 32 H141     2.4640     6.8520    16.6480 H     1 Q101   0.0600 
 33 H132     1.2650     7.0350    14.5900 H     1 Q101   0.0720 
 34 H131     2.2100     8.4420    14.0940 H     1 Q101   0.0720 
 35 H83      7.4760     9.7040    23.5860 H     1 Q101   0.0490 
 36 H82      8.8030     9.0200    22.5970 H     1 Q101   0.0490 
 37 H81      8.4400    10.7550    22.5070 H     1 Q101   0.0490 
 38 H73      7.1050     7.9150    20.1940 H     1 Q101   0.0490 
 39 H72      7.2220     7.4370    21.9180 H     1 Q101   0.0490 
 40 H71      5.6620     7.9650    21.2240 H     1 Q101   0.0490 
 41 H6      -2.8650    11.0400    13.2730 H     1 Q101   0.1940 
 42 H5      -2.9680    10.8740    15.9450 H     1 Q101   0.1560 
 43 H3      -3.2810     9.0570    17.7830 H     1 Q101   0.1600 
 44 H26      3.6930    10.0400    21.2290 H     1 Q101   0.1600 
 45 H24      6.7910     9.9400    18.2390 H     1 Q101   0.1630 
 46 H21      5.1470     9.3110    16.5560 H     1 Q101   0.1530 
 47 H2      -4.3520     6.7120    18.1010 H     1 Q101   0.1720 
 48 H12     -0.1700     8.3300    15.9430 H     1 Q101   0.0910 
 49 H1       0.2310    10.8990    14.9060 H     1 Q101   0.4670 
@<TRIPOS>BOND
  1   1   2  am  
  2   1   9  1   
  3   1  49  1   
  4   2  21  2   
  5   2  29  1   
  6   2  30  2   
  7   3  11  1   
  8   3  12  1   
  9   3  19  am  
 10   4   7  1   
 11   4   8  1   
 12   4  18  am  
 13   5  19  2   
 14   6  18  2   
 15   7  38  1   
 16   7  39  1   
 17   7  40  1   
 18   8  35  1   
 19   8  36  1   
 20   8  37  1   
 21   9  10  1   
 22   9  19  1   
 23   9  48  1   
 24  10  11  1   
 25  10  33  1   
 26  10  34  1   
 27  11  31  1   
 28  11  32  1   
 29  12  13  ar  
 30  12  14  ar  
 31  13  15  ar  
 32  13  46  1   
 33  14  16  ar  
 34  14  20  1   
 35  15  17  ar  
 36  15  45  1   
 37  16  17  ar  
 38  16  44  1   
 39  17  18  1   
 40  22  23  1   
 41  23  24  2   
 42  23  25  1   
 43  24  26  1   
 44  24  47  1   
 45  25  27  1   
 46  26  27  2   
 47  26  43  1   
 48  27  28  1   
 49  28  29  2   
 50  28  42  1   
 51  29  41  1   
@<TRIPOS>SUBSTRUCTURE
  1 Q101  19 GROUP 4 **** **** 0

# MOE 2011.10 (io_trps.svl 2011.10)

@<TRIPOS>MOLECULE
FXA101_7
49 51 1 0 0 
SMALL
USER_CHARGES


@<TRIPOS>ATOM
  1 N1       6.5760     9.7990    20.2330 N.am  1 Q101  -0.8960 
  2 S1       7.4580     9.6580    21.5790 S.o2  1 Q101   1.3220 
  3 N2       3.8330     8.9320    18.3380 N.am  1 Q101  -0.3970 
  4 N3       1.7950     8.0520    12.1780 N.am  1 Q101  -0.4840 
  5 O3       6.0000     8.4280    17.7400 O.2   1 Q101  -0.6040 
  6 O4       0.5330     9.6890    12.9940 O.2   1 Q101  -0.6060 
  7 C7       0.7130     7.6030    11.2880 C.3   1 Q101   0.0840 
  8 C8       3.1600     7.5780    11.8950 C.3   1 Q101   0.0840 
  9 C12      5.4140     8.9590    20.0520 C.3   1 Q101   0.1690 
 10 C13      4.1170     9.5880    20.5720 C.3   1 Q101  -0.1080 
 11 C14      3.0590     9.2130    19.5390 C.3   1 Q101   0.1020 
 12 C15      3.2420     8.8940    17.0360 C.ar  1 Q101   0.0330 
 13 C21      3.0660    10.0510    16.2910 C.ar  1 Q101  -0.1060 
 14 C22      2.8000     7.6970    16.4920 C.ar  1 Q101   0.1210 
 15 C24      2.4810    10.0190    15.0410 C.ar  1 Q101  -0.0920 
 16 C26      2.2080     7.6250    15.2410 C.ar  1 Q101  -0.1400 
 17 C27      2.0580     8.8070    14.5150 C.ar  1 Q101  -0.1150 
 18 C28      1.4180     8.8670    13.1680 C.2   1 Q101   0.6760 
 19 C50      5.1550     8.7340    18.5670 C.2   1 Q101   0.6950 
 20 F1       2.9580     6.5740    17.2130 F     1 Q101  -0.1400 
 21 O1       8.4010    10.7310    21.4960 O.2   1 Q101  -0.5930 
 22 CL1     11.3090     7.3360    26.5080 Cl    1 Q101  -0.0550 
 23 C1      10.0920     8.2710    25.7060 C.2   1 Q101   0.0330 
 24 C2      10.1990     9.5560    25.2880 C.2   1 Q101  -0.1460 
 25 S2       8.5660     7.5540    25.3700 S.3   1 Q101   0.0240 
 26 C3       9.0170     9.9890    24.6820 C.2   1 Q101  -0.1130 
 27 C4       8.0160     9.0270    24.6440 C.2   1 Q101  -0.0920 
 28 C5       6.6860     9.2440    24.0620 C.2   1 Q101   0.0810 
 29 C6       6.4140     9.9170    22.9440 C.2   1 Q101  -0.4200 
 30 O2       7.8820     8.2870    21.5340 O.2   1 Q101  -0.5930 
 31 H142     2.3450    10.0230    19.3620 H     1 Q101   0.0600 
 32 H141     2.5240     8.3040    19.8320 H     1 Q101   0.0600 
 33 H132     3.8600     9.2420    21.5780 H     1 Q101   0.0720 
 34 H131     4.2160    10.6790    20.6140 H     1 Q101   0.0720 
 35 H83      3.2840     6.5840    12.3200 H     1 Q101   0.0490 
 36 H82      3.3110     7.5510    10.8120 H     1 Q101   0.0490 
 37 H81      3.8710     8.2730    12.3340 H     1 Q101   0.0490 
 38 H73      0.3070     8.4750    10.7680 H     1 Q101   0.0490 
 39 H72      1.0860     6.8720    10.5660 H     1 Q101   0.0490 
 40 H71     -0.0890     7.1520    11.8820 H     1 Q101   0.0490 
 41 H6       5.5840    10.5990    22.8250 H     1 Q101   0.1940 
 42 H5       5.8850     8.7460    24.6070 H     1 Q101   0.1560 
 43 H3       8.8920    10.9820    24.2610 H     1 Q101   0.1600 
 44 H26      1.8830     6.6720    14.8460 H     1 Q101   0.1600 
 45 H24      2.3250    10.9420    14.4990 H     1 Q101   0.1630 
 46 H21      3.3790    11.0120    16.6930 H     1 Q101   0.1530 
 47 H2      11.0820    10.1700    25.3970 H     1 Q101   0.1720 
 48 H12      5.5330     7.9680    20.5060 H     1 Q101   0.0910 
 49 H1       7.0750    10.0820    19.3860 H     1 Q101   0.4670 
@<TRIPOS>BOND
  1   1   2  am  
  2   1   9  1   
  3   1  49  1   
  4   2  21  2   
  5   2  29  1   
  6   2  30  2   
  7   3  11  1   
  8   3  12  1   
  9   3  19  am  
 10   4   7  1   
 11   4   8  1   
 12   4  18  am  
 13   5  19  2   
 14   6  18  2   
 15   7  38  1   
 16   7  39  1   
 17   7  40  1   
 18   8  35  1   
 19   8  36  1   
 20   8  37  1   
 21   9  10  1   
 22   9  19  1   
 23   9  48  1   
 24  10  11  1   
 25  10  33  1   
 26  10  34  1   
 27  11  31  1   
 28  11  32  1   
 29  12  13  ar  
 30  12  14  ar  
 31  13  15  ar  
 32  13  46  1   
 33  14  16  ar  
 34  14  20  1   
 35  15  17  ar  
 36  15  45  1   
 37  16  17  ar  
 38  16  44  1   
 39  17  18  1   
 40  22  23  1   
 41  23  24  2   
 42  23  25  1   
 43  24  26  1   
 44  24  47  1   
 45  25  27  1   
 46  26  27  2   
 47  26  43  1   
 48  27  28  1   
 49  28  29  2   
 50  28  42  1   
 51  29  41  1   
@<TRIPOS>SUBSTRUCTURE
  1 Q101  19 GROUP 4 **** **** 0

# MOE 2011.10 (io_trps.svl 2011.10)

@<TRIPOS>MOLECULE
FXA101_8
49 51 1 0 0 
SMALL
USER_CHARGES


@<TRIPOS>ATOM
  1 N1       5.6840     8.3390    22.9910 N.am  1 Q101  -0.8960 
  2 S1       6.2020     9.0710    24.3350 S.o2  1 Q101   1.3220 
  3 N2       4.9900     5.4640    21.2260 N.am  1 Q101  -0.3970 
  4 N3       3.9980     2.0500    15.8160 N.am  1 Q101  -0.4840 
  5 O3       6.9920     6.5940    21.0750 O.2   1 Q101  -0.6040 
  6 O4       5.9890     2.9570    15.4250 O.2   1 Q101  -0.6060 
  7 C7       3.5960     1.0180    16.7860 C.3   1 Q101   0.0840 
  8 C8       3.2240     2.1610    14.5700 C.3   1 Q101   0.0840 
  9 C12      5.5000     6.9060    22.9860 C.3   1 Q101   0.1690 
 10 C13      4.0350     6.4750    23.1140 C.3   1 Q101  -0.1080 
 11 C14      3.8920     5.2900    22.1660 C.3   1 Q101   0.1020 
 12 C15      5.0300     4.7970    19.9610 C.ar  1 Q101   0.0330 
 13 C21      4.1240     5.1050    18.9550 C.ar  1 Q101  -0.1060 
 14 C22      5.9620     3.8010    19.7130 C.ar  1 Q101   0.1210 
 15 C24      4.1510     4.4520    17.7400 C.ar  1 Q101  -0.0920 
 16 C26      6.0190     3.1220    18.5060 C.ar  1 Q101  -0.1400 
 17 C27      5.1000     3.4660    17.5140 C.ar  1 Q101  -0.1150 
 18 C28      5.0440     2.7980    16.1800 C.2   1 Q101   0.6760 
 19 C50      5.9480     6.3240    21.6510 C.2   1 Q101   0.6950 
 20 F1       6.8350     3.4910    20.6860 F     1 Q101  -0.1400 
 21 O1       5.0960     8.9760    25.2370 O.2   1 Q101  -0.5930 
 22 CL1     13.9370     7.3940    26.4140 Cl    1 Q101  -0.0550 
 23 C1      12.2270     7.6300    26.2780 C.2   1 Q101   0.0330 
 24 C2      11.2850     7.2890    27.1890 C.2   1 Q101  -0.1460 
 25 S2      11.5910     8.3760    24.8650 S.3   1 Q101   0.0240 
 26 C3      10.0040     7.6280    26.7430 C.2   1 Q101  -0.1130 
 27 C4       9.9830     8.2270    25.4900 C.2   1 Q101  -0.0920 
 28 C5       8.7610     8.6690    24.8090 C.2   1 Q101   0.0810 
 29 C6       7.5400     8.1600    24.9690 C.2   1 Q101  -0.4200 
 30 O2       6.6580    10.3410    23.8440 O.2   1 Q101  -0.5930 
 31 H142     2.9300     5.2880    21.6450 H     1 Q101   0.0600 
 32 H141     4.0290     4.3410    22.6940 H     1 Q101   0.0600 
 33 H132     3.7630     6.2230    24.1430 H     1 Q101   0.0720 
 34 H131     3.3730     7.2870    22.7890 H     1 Q101   0.0720 
 35 H83      3.5840     1.4190    13.8610 H     1 Q101   0.0490 
 36 H82      2.1660     1.9950    14.7910 H     1 Q101   0.0490 
 37 H81      3.3460     3.1640    14.1680 H     1 Q101   0.0490 
 38 H73      3.2570     1.5140    17.6990 H     1 Q101   0.0490 
 39 H72      2.7980     0.3950    16.3750 H     1 Q101   0.0490 
 40 H71      4.4590     0.3910    17.0340 H     1 Q101   0.0490 
 41 H6       7.3260     7.2170    25.4530 H     1 Q101   0.1940 
 42 H5       8.9110     9.5300    24.1590 H     1 Q101   0.1560 
 43 H3       9.1050     7.4560    27.3260 H     1 Q101   0.1600 
 44 H26      6.7660     2.3560    18.3460 H     1 Q101   0.1600 
 45 H24      3.4100     4.6890    16.9890 H     1 Q101   0.1630 
 46 H21      3.3640     5.8650    19.1210 H     1 Q101   0.1530 
 47 H2      11.4870     6.8220    28.1440 H     1 Q101   0.1720 
 48 H12      6.0860     6.4020    23.7640 H     1 Q101   0.0910 
 49 H1       5.9490     8.7730    22.1030 H     1 Q101   0.4670 
@<TRIPOS>BOND
  1   1   2  am  
  2   1   9  1   
  3   1  49  1   
  4   2  21  2   
  5   2  29  1   
  6   2  30  2   
  7   3  11  1   
  8   3  12  1   
  9   3  19  am  
 10   4   7  1   
 11   4   8  1   
 12   4  18  am  
 13   5  19  2   
 14   6  18  2   
 15   7  38  1   
 16   7  39  1   
 17   7  40  1   
 18   8  35  1   
 19   8  36  1   
 20   8  37  1   
 21   9  10  1   
 22   9  19  1   
 23   9  48  1   
 24  10  11  1   
 25  10  33  1   
 26  10  34  1   
 27  11  31  1   
 28  11  32  1   
 29  12  13  ar  
 30  12  14  ar  
 31  13  15  ar  
 32  13  46  1   
 33  14  16  ar  
 34  14  20  1   
 35  15  17  ar  
 36  15  45  1   
 37  16  17  ar  
 38  16  44  1   
 39  17  18  1   
 40  22  23  1   
 41  23  24  2   
 42  23  25  1   
 43  24  26  1   
 44  24  47  1   
 45  25  27  1   
 46  26  27  2   
 47  26  43  1   
 48  27  28  1   
 49  28  29  2   
 50  28  42  1   
 51  29  41  1   
@<TRIPOS>SUBSTRUCTURE
  1 Q101  19 GROUP 4 **** **** 0

# MOE 2011.10 (io_trps.svl 2011.10)

@<TRIPOS>MOLECULE
FXA101_9
49 51 1 0 0 
SMALL
USER_CHARGES


@<TRIPOS>ATOM
  1 N1       3.9610    13.3730    19.2020 N.am  1 Q101  -0.8960 
  2 S1       5.1330    12.2970    19.4830 S.o2  1 Q101   1.3220 
  3 N2       2.2730    14.3310    16.3560 N.am  1 Q101  -0.3970 
  4 N3       3.4380    18.0260    11.0780 N.am  1 Q101  -0.4840 
  5 O3       4.4600    13.6030    16.3510 O.2   1 Q101  -0.6040 
  6 O4       1.4090    17.1730    10.7690 O.2   1 Q101  -0.6060 
  7 C7       4.1920    17.4890     9.9350 C.3   1 Q101   0.0840 
  8 C8       3.8850    19.3030    11.6590 C.3   1 Q101   0.0840 
  9 C12      2.9550    13.0850    18.2060 C.3   1 Q101   0.1690 
 10 C13      1.5920    13.7140    18.5130 C.3   1 Q101  -0.1080 
 11 C14      1.0700    14.1960    17.1640 C.3   1 Q101   0.1020 
 12 C15      2.3040    15.0940    15.1460 C.ar  1 Q101   0.0330 
 13 C21      1.5250    14.7440    14.0530 C.ar  1 Q101  -0.1060 
 14 C22      3.1390    16.1950    15.0230 C.ar  1 Q101   0.1210 
 15 C24      1.5660    15.4690    12.8800 C.ar  1 Q101  -0.0920 
 16 C26      3.2080    16.9470    13.8620 C.ar  1 Q101  -0.1400 
 17 C27      2.4020    16.5720    12.7860 C.ar  1 Q101  -0.1150 
 18 C28      2.3980    17.2860    11.4750 C.2   1 Q101   0.6760 
 19 C50      3.3550    13.6900    16.8660 C.2   1 Q101   0.6950 
 20 F1       3.9030    16.5340    16.0750 F     1 Q101  -0.1400 
 21 O1       6.1150    13.0310    20.2200 O.2   1 Q101  -0.5930 
 22 CL1      9.9270     9.1570    23.7680 Cl    1 Q101  -0.0550 
 23 C1       8.5920     9.6070    22.7610 C.2   1 Q101   0.0330 
 24 C2       8.5540     9.5870    21.4070 C.2   1 Q101  -0.1460 
 25 S2       7.1300    10.1390    23.4920 S.3   1 Q101   0.0240 
 26 C3       7.3130    10.0200    20.9310 C.2   1 Q101  -0.1130 
 27 C4       6.4140    10.3660    21.9320 C.2   1 Q101  -0.0920 
 28 C5       5.0510    10.8510    21.6820 C.2   1 Q101   0.0810 
 29 C6       4.4850    11.0370    20.4900 C.2   1 Q101  -0.4200 
 30 O2       5.4110    11.7870    18.1700 O.2   1 Q101  -0.5930 
 31 H142     0.5420    15.1520    17.2390 H     1 Q101   0.0600 
 32 H141     0.4180    13.4480    16.7010 H     1 Q101   0.0600 
 33 H132     0.9080    13.0110    18.9990 H     1 Q101   0.0720 
 34 H131     1.7140    14.5720    19.1860 H     1 Q101   0.0720 
 35 H83      4.7040    19.1110    12.3480 H     1 Q101   0.0490 
 36 H82      4.2120    19.9660    10.8530 H     1 Q101   0.0490 
 37 H81      3.0490    19.7650    12.1780 H     1 Q101   0.0490 
 38 H73      3.5340    17.4730     9.0620 H     1 Q101   0.0490 
 39 H72      5.0740    18.1020     9.7330 H     1 Q101   0.0490 
 40 H71      4.5030    16.4610    10.1500 H     1 Q101   0.0490 
 41 H6       3.6630    10.4520    20.1040 H     1 Q101   0.1940 
 42 H5       4.4730    11.0130    22.5910 H     1 Q101   0.1560 
 43 H3       7.0630    10.0670    19.8750 H     1 Q101   0.1600 
 44 H26      3.8660    17.8040    13.8050 H     1 Q101   0.1600 
 45 H24      0.9740    15.1500    12.0330 H     1 Q101   0.1630 
 46 H21      0.8750    13.8740    14.1040 H     1 Q101   0.1530 
 47 H2       9.3680     9.2720    20.7690 H     1 Q101   0.1720 
 48 H12      2.8190    12.0100    18.0410 H     1 Q101   0.0910 
 49 H1       4.2010    14.3570    19.3440 H     1 Q101   0.4670 
@<TRIPOS>BOND
  1   1   2  am  
  2   1   9  1   
  3   1  49  1   
  4   2  21  2   
  5   2  29  1   
  6   2  30  2   
  7   3  11  1   
  8   3  12  1   
  9   3  19  am  
 10   4   7  1   
 11   4   8  1   
 12   4  18  am  
 13   5  19  2   
 14   6  18  2   
 15   7  38  1   
 16   7  39  1   
 17   7  40  1   
 18   8  35  1   
 19   8  36  1   
 20   8  37  1   
 21   9  10  1   
 22   9  19  1   
 23   9  48  1   
 24  10  11  1   
 25  10  33  1   
 26  10  34  1   
 27  11  31  1   
 28  11  32  1   
 29  12  13  ar  
 30  12  14  ar  
 31  13  15  ar  
 32  13  46  1   
 33  14  16  ar  
 34  14  20  1   
 35  15  17  ar  
 36  15  45  1   
 37  16  17  ar  
 38  16  44  1   
 39  17  18  1   
 40  22  23  1   
 41  23  24  2   
 42  23  25  1   
 43  24  26  1   
 44  24  47  1   
 45  25  27  1   
 46  26  27  2   
 47  26  43  1   
 48  27  28  1   
 49  28  29  2   
 50  28  42  1   
 51  29  41  1   
@<TRIPOS>SUBSTRUCTURE
  1 Q101   5 GROUP 4 **** **** 0

# MOE 2011.10 (io_trps.svl 2011.10)

@<TRIPOS>MOLECULE
FXA101_10
49 51 1 0 0 
SMALL
USER_CHARGES


@<TRIPOS>ATOM
  1 N1       5.0860    10.1970    21.8120 N.am  1 Q101  -0.8960 
  2 S1       6.6940    10.3460    21.7600 S.o2  1 Q101   1.3220 
  3 N2       2.7460     8.0700    23.1760 N.am  1 Q101  -0.3970 
  4 N3      -2.6460     6.3720    26.3760 N.am  1 Q101  -0.4840 
  5 O3       2.2190     9.7570    21.6970 O.2   1 Q101  -0.6040 
  6 O4      -3.0180     8.5030    25.8700 O.2   1 Q101  -0.6060 
  7 C7      -3.0740     5.3090    25.4530 C.3   1 Q101   0.0840 
  8 C8      -2.6390     6.0690    27.8170 C.3   1 Q101   0.0840 
  9 C12      4.4950     8.8800    21.8630 C.3   1 Q101   0.1690 
 10 C13      5.0800     7.9880    22.9630 C.3   1 Q101  -0.1080 
 11 C14      3.8830     7.2350    23.5340 C.3   1 Q101   0.1020 
 12 C15      1.4700     7.9440    23.8120 C.ar  1 Q101   0.0330 
 13 C21      1.2990     8.2620    25.1520 C.ar  1 Q101  -0.1060 
 14 C22      0.3710     7.4710    23.1100 C.ar  1 Q101   0.1210 
 15 C24      0.0730     8.1250    25.7710 C.ar  1 Q101  -0.0920 
 16 C26     -0.8740     7.3190    23.6980 C.ar  1 Q101  -0.1400 
 17 C27     -1.0120     7.6590    25.0440 C.ar  1 Q101  -0.1150 
 18 C28     -2.2940     7.5230    25.7970 C.2   1 Q101   0.6760 
 19 C50      3.0140     8.9830    22.2100 C.2   1 Q101   0.6950 
 20 F1       0.5330     7.1520    21.8150 F     1 Q101  -0.1400 
 21 O1       6.9090    11.7120    21.3930 O.2   1 Q101  -0.5930 
 22 CL1     11.5920     6.9780    27.3590 Cl    1 Q101  -0.0550 
 23 C1      10.3390     7.7290    26.4290 C.2   1 Q101   0.0330 
 24 C2       9.0540     7.9290    26.8100 C.2   1 Q101  -0.1460 
 25 S2      10.6960     8.3080    24.8500 S.3   1 Q101   0.0240 
 26 C3       8.3220     8.5630    25.8020 C.2   1 Q101  -0.1130 
 27 C4       9.0600     8.8410    24.6570 C.2   1 Q101  -0.0920 
 28 C5       8.5120     9.4970    23.4640 C.2   1 Q101   0.0810 
 29 C6       7.3170    10.0780    23.3600 C.2   1 Q101  -0.4200 
 30 O2       7.0810     9.2700    20.8920 O.2   1 Q101  -0.5930 
 31 H142     3.9490     7.1100    24.6190 H     1 Q101   0.0600 
 32 H141     3.7650     6.2580    23.0540 H     1 Q101   0.0600 
 33 H132     5.8560     7.3160    22.5860 H     1 Q101   0.0720 
 34 H131     5.5320     8.6050    23.7500 H     1 Q101   0.0720 
 35 H83     -3.6450     6.1950    28.2100 H     1 Q101   0.0490 
 36 H82     -2.2980     5.0400    27.9640 H     1 Q101   0.0490 
 37 H81     -1.9470     6.7440    28.3140 H     1 Q101   0.0490 
 38 H73     -2.2250     5.0350    24.8220 H     1 Q101   0.0490 
 39 H72     -3.4300     4.4370    26.0080 H     1 Q101   0.0490 
 40 H71     -3.8760     5.6840    24.8080 H     1 Q101   0.0490 
 41 H6       6.7060    10.3790    24.1990 H     1 Q101   0.1940 
 42 H5       9.2080     9.5300    22.6270 H     1 Q101   0.1560 
 43 H3       7.2750     8.8320    25.9040 H     1 Q101   0.1600 
 44 H26     -1.7100     6.9550    23.1160 H     1 Q101   0.1600 
 45 H24     -0.0220     8.3470    26.8260 H     1 Q101   0.1630 
 46 H21      2.1420     8.6140    25.7400 H     1 Q101   0.1530 
 47 H2       8.6410     7.6470    27.7680 H     1 Q101   0.1720 
 48 H12      4.5600     8.3500    20.9060 H     1 Q101   0.0910 
 49 H1       4.5440    10.9280    21.3430 H     1 Q101   0.4670 
@<TRIPOS>BOND
  1   1   2  am  
  2   1   9  1   
  3   1  49  1   
  4   2  21  2   
  5   2  29  1   
  6   2  30  2   
  7   3  11  1   
  8   3  12  1   
  9   3  19  am  
 10   4   7  1   
 11   4   8  1   
 12   4  18  am  
 13   5  19  2   
 14   6  18  2   
 15   7  38  1   
 16   7  39  1   
 17   7  40  1   
 18   8  35  1   
 19   8  36  1   
 20   8  37  1   
 21   9  10  1   
 22   9  19  1   
 23   9  48  1   
 24  10  11  1   
 25  10  33  1   
 26  10  34  1   
 27  11  31  1   
 28  11  32  1   
 29  12  13  ar  
 30  12  14  ar  
 31  13  15  ar  
 32  13  46  1   
 33  14  16  ar  
 34  14  20  1   
 35  15  17  ar  
 36  15  45  1   
 37  16  17  ar  
 38  16  44  1   
 39  17  18  1   
 40  22  23  1   
 41  23  24  2   
 42  23  25  1   
 43  24  26  1   
 44  24  47  1   
 45  25  27  1   
 46  26  27  2   
 47  26  43  1   
 48  27  28  1   
 49  28  29  2   
 50  28  42  1   
 51  29  41  1   
@<TRIPOS>SUBSTRUCTURE
  1 Q101  11 GROUP 4 **** **** 0

# MOE 2011.10 (io_trps.svl 2011.10)

@<TRIPOS>MOLECULE
FXA101_11
49 51 1 0 0 
SMALL
USER_CHARGES


@<TRIPOS>ATOM
  1 N1       6.3970    10.5030    22.6140 N.am  1 Q101  -0.8960 
  2 S1       7.7530     9.8410    23.1890 S.o2  1 Q101   1.3220 
  3 N2       4.4180    10.0230    19.8350 N.am  1 Q101  -0.3970 
  4 N3       2.7770    12.2110    13.9490 N.am  1 Q101  -0.4840 
  5 O3       6.7130     9.8200    19.8100 O.2   1 Q101  -0.6040 
  6 O4       4.2770    10.6370    13.4850 O.2   1 Q101  -0.6060 
  7 C7       1.5550    12.3250    14.7610 C.3   1 Q101   0.0840 
  8 C8       2.9560    13.1600    12.8380 C.3   1 Q101   0.0840 
  9 C12      5.4500     9.6790    21.8980 C.3   1 Q101   0.1690 
 10 C13      3.9890    10.0720    22.1400 C.3   1 Q101  -0.1080 
 11 C14      3.3140     9.9290    20.7810 C.3   1 Q101   0.1020 
 12 C15      4.2170    10.3020    18.4470 C.ar  1 Q101   0.0330 
 13 C21      4.9300    11.3040    17.8030 C.ar  1 Q101  -0.1060 
 14 C22      3.2790     9.5940    17.7090 C.ar  1 Q101   0.1210 
 15 C24      4.7260    11.5850    16.4670 C.ar  1 Q101  -0.0920 
 16 C26      3.0460     9.8490    16.3680 C.ar  1 Q101  -0.1400 
 17 C27      3.7890    10.8560    15.7500 C.ar  1 Q101  -0.1150 
 18 C28      3.6190    11.2400    14.3170 C.2   1 Q101   0.6760 
 19 C50      5.6400     9.8460    20.3950 C.2   1 Q101   0.6950 
 20 F1       2.5790     8.6310    18.3300 F     1 Q101  -0.1400 
 21 O1       8.7080    10.9060    23.1510 O.2   1 Q101  -0.5930 
 22 CL1     13.3830     7.2820    26.8100 Cl    1 Q101  -0.0550 
 23 C1      11.9240     7.7410    25.9980 C.2   1 Q101   0.0330 
 24 C2      11.8210     8.3050    24.7700 C.2   1 Q101  -0.1460 
 25 S2      10.4120     7.4760    26.7720 S.3   1 Q101   0.0240 
 26 C3      10.4860     8.5430    24.4350 C.2   1 Q101  -0.1130 
 27 C4       9.5790     8.1560    25.4140 C.2   1 Q101  -0.0920 
 28 C5       8.1240     8.3060    25.2950 C.2   1 Q101   0.0810 
 29 C6       7.4760     9.3780    24.8410 C.2   1 Q101  -0.4200 
 30 O2       7.9050     8.6740    22.3670 O.2   1 Q101  -0.5930 
 31 H142     2.5760    10.7160    20.5980 H     1 Q101   0.0600 
 32 H141     2.8440     8.9460    20.6740 H     1 Q101   0.0600 
 33 H132     3.5140     9.4570    22.9100 H     1 Q101   0.0720 
 34 H131     3.9280    11.1170    22.4710 H     1 Q101   0.0720 
 35 H83      2.4020    12.8010    11.9730 H     1 Q101   0.0490 
 36 H82      2.5870    14.1430    13.1460 H     1 Q101   0.0490 
 37 H81      4.0150    13.2360    12.6080 H     1 Q101   0.0490 
 38 H73      1.8410    12.5990    15.7800 H     1 Q101   0.0490 
 39 H72      0.8830    13.0770    14.3410 H     1 Q101   0.0490 
 40 H71      1.0450    11.3560    14.7950 H     1 Q101   0.0490 
 41 H6       6.7820     9.9680    25.4220 H     1 Q101   0.1940 
 42 H5       7.5700     7.4100    25.5710 H     1 Q101   0.1560 
 43 H3      10.1770     8.9760    23.4880 H     1 Q101   0.1600 
 44 H26      2.3110     9.2710    15.8230 H     1 Q101   0.1600 
 45 H24      5.2710    12.3950    16.0020 H     1 Q101   0.1630 
 46 H21      5.6570    11.8950    18.3540 H     1 Q101   0.1530 
 47 H2      12.6560     8.5380    24.1240 H     1 Q101   0.1720 
 48 H12      5.5690     8.6110    22.1160 H     1 Q101   0.0910 
 49 H1       6.4480    11.4880    22.3420 H     1 Q101   0.4670 
@<TRIPOS>BOND
  1   1   2  am  
  2   1   9  1   
  3   1  49  1   
  4   2  21  2   
  5   2  29  1   
  6   2  30  2   
  7   3  11  1   
  8   3  12  1   
  9   3  19  am  
 10   4   7  1   
 11   4   8  1   
 12   4  18  am  
 13   5  19  2   
 14   6  18  2   
 15   7  38  1   
 16   7  39  1   
 17   7  40  1   
 18   8  35  1   
 19   8  36  1   
 20   8  37  1   
 21   9  10  1   
 22   9  19  1   
 23   9  48  1   
 24  10  11  1   
 25  10  33  1   
 26  10  34  1   
 27  11  31  1   
 28  11  32  1   
 29  12  13  ar  
 30  12  14  ar  
 31  13  15  ar  
 32  13  46  1   
 33  14  16  ar  
 34  14  20  1   
 35  15  17  ar  
 36  15  45  1   
 37  16  17  ar  
 38  16  44  1   
 39  17  18  1   
 40  22  23  1   
 41  23  24  2   
 42  23  25  1   
 43  24  26  1   
 44  24  47  1   
 45  25  27  1   
 46  26  27  2   
 47  26  43  1   
 48  27  28  1   
 49  28  29  2   
 50  28  42  1   
 51  29  41  1   
@<TRIPOS>SUBSTRUCTURE
  1 Q101  19 GROUP 4 **** **** 0

# MOE 2011.10 (io_trps.svl 2011.10)

@<TRIPOS>MOLECULE
FXA101_12
49 51 1 0 0 
SMALL
USER_CHARGES


@<TRIPOS>ATOM
  1 N1       6.4800     8.8530    23.0870 N.am  1 Q101  -0.8960 
  2 S1       6.2390     8.5790    24.6600 S.o2  1 Q101   1.3220 
  3 N2       6.8900    11.0250    20.4450 N.am  1 Q101  -0.3970 
  4 N3       4.6660    12.1860    14.4910 N.am  1 Q101  -0.4840 
  5 O3       4.9040     9.9540    20.9120 O.2   1 Q101  -0.6040 
  6 O4       6.8550    12.0820    14.1230 O.2   1 Q101  -0.6060 
  7 C7       4.3760    13.5120    13.9210 C.3   1 Q101   0.0840 
  8 C8       3.5700    11.2040    14.5410 C.3   1 Q101   0.0840 
  9 C12      6.6380    10.2090    22.6150 C.3   1 Q101   0.1690 
 10 C13      8.1000    10.6220    22.4130 C.3   1 Q101  -0.1080 
 11 C14      8.0980    11.4530    21.1350 C.3   1 Q101   0.1020 
 12 C15      6.6740    11.2700    19.0520 C.ar  1 Q101   0.0330 
 13 C21      5.7860    12.2460    18.6210 C.ar  1 Q101  -0.1060 
 14 C22      7.3270    10.5140    18.0900 C.ar  1 Q101   0.1210 
 15 C24      5.5640    12.4720    17.2780 C.ar  1 Q101  -0.0920 
 16 C26      7.1290    10.7110    16.7330 C.ar  1 Q101  -0.1400 
 17 C27      6.2380    11.7090    16.3360 C.ar  1 Q101  -0.1150 
 18 C28      5.9230    12.0070    14.9070 C.2   1 Q101   0.6760 
 19 C50      6.0090    10.3620    21.2350 C.2   1 Q101   0.6950 
 20 F1       8.1800     9.5610    18.5010 F     1 Q101  -0.1400 
 21 O1       7.2410     9.3650    25.3120 O.2   1 Q101  -0.5930 
 22 CL1     -1.3180    10.5610    26.1460 Cl    1 Q101  -0.0550 
 23 C1       0.0070     9.9000    25.2490 C.2   1 Q101   0.0330 
 24 C2      -0.0560     9.2690    24.0520 C.2   1 Q101  -0.1460 
 25 S2       1.6000    10.0270    25.8860 S.3   1 Q101   0.0240 
 26 C3       1.2120     8.8650    23.6260 C.2   1 Q101  -0.1130 
 27 C4       2.2350     9.1930    24.5080 C.2   1 Q101  -0.0920 
 28 C5       3.6490     8.8720    24.2850 C.2   1 Q101   0.0810 
 29 C6       4.6670     9.1890    25.0840 C.2   1 Q101  -0.4200 
 30 O2       6.2490     7.1450    24.7340 O.2   1 Q101  -0.5930 
 31 H142     8.9840    11.2700    20.5190 H     1 Q101   0.0600 
 32 H141     8.0160    12.5220    21.3570 H     1 Q101   0.0600 
 33 H132     8.5000    11.1720    23.2690 H     1 Q101   0.0720 
 34 H131     8.7270     9.7330    22.2710 H     1 Q101   0.0720 
 35 H83      2.9600    11.3990    15.4200 H     1 Q101   0.0490 
 36 H82      2.9690    11.2940    13.6320 H     1 Q101   0.0490 
 37 H81      3.9960    10.2050    14.5850 H     1 Q101   0.0490 
 38 H73      4.9720    13.6360    13.0130 H     1 Q101   0.0490 
 39 H72      3.3120    13.6070    13.6910 H     1 Q101   0.0490 
 40 H71      4.6670    14.2900    14.6340 H     1 Q101   0.0490 
 41 H6       4.5850     9.8070    25.9660 H     1 Q101   0.1940 
 42 H5       3.8240     8.2730    23.3920 H     1 Q101   0.1560 
 43 H3       1.3910     8.3550    22.6850 H     1 Q101   0.1600 
 44 H26      7.6630    10.1080    16.0110 H     1 Q101   0.1600 
 45 H24      4.8400    13.2150    16.9730 H     1 Q101   0.1630 
 46 H21      5.2390    12.8430    19.3460 H     1 Q101   0.1530 
 47 H2      -0.9630     9.1030    23.4870 H     1 Q101   0.1720 
 48 H12      6.1510    10.9430    23.2680 H     1 Q101   0.0910 
 49 H1       6.0560     8.1850    22.4370 H     1 Q101   0.4670 
@<TRIPOS>BOND
  1   1   2  am  
  2   1   9  1   
  3   1  49  1   
  4   2  21  2   
  5   2  29  1   
  6   2  30  2   
  7   3  11  1   
  8   3  12  1   
  9   3  19  am  
 10   4   7  1   
 11   4   8  1   
 12   4  18  am  
 13   5  19  2   
 14   6  18  2   
 15   7  38  1   
 16   7  39  1   
 17   7  40  1   
 18   8  35  1   
 19   8  36  1   
 20   8  37  1   
 21   9  10  1   
 22   9  19  1   
 23   9  48  1   
 24  10  11  1   
 25  10  33  1   
 26  10  34  1   
 27  11  31  1   
 28  11  32  1   
 29  12  13  ar  
 30  12  14  ar  
 31  13  15  ar  
 32  13  46  1   
 33  14  16  ar  
 34  14  20  1   
 35  15  17  ar  
 36  15  45  1   
 37  16  17  ar  
 38  16  44  1   
 39  17  18  1   
 40  22  23  1   
 41  23  24  2   
 42  23  25  1   
 43  24  26  1   
 44  24  47  1   
 45  25  27  1   
 46  26  27  2   
 47  26  43  1   
 48  27  28  1   
 49  28  29  2   
 50  28  42  1   
 51  29  41  1   
@<TRIPOS>SUBSTRUCTURE
  1 Q101   5 GROUP 4 **** **** 0
