@<TRIPOS>MOLECULE
*****
 18 19 0 0 0
SMALL
GASTEIGER

@<TRIPOS>ATOM
      1 C1          2.4317   -0.6968   -0.0085 C.ar    1  UNL1       -0.0612
      2 C2          2.4321    0.6950   -0.0036 C.ar    1  UNL1       -0.0612
      3 C3          1.2234    1.3930    0.0039 C.ar    1  UNL1       -0.0540
      4 C4         -0.0018    0.7067    0.0027 C.ar    1  UNL1       -0.0179
      5 C5         -1.2263    1.3941   -0.0021 C.ar    1  UNL1       -0.0540
      6 C6         -2.4357    0.6973   -0.0095 C.ar    1  UNL1       -0.0612
      7 C7         -2.4365   -0.6946   -0.0053 C.ar    1  UNL1       -0.0612
      8 C8         -1.2281   -1.3932    0.0024 C.ar    1  UNL1       -0.0540
      9 C9         -0.0018   -0.7075    0.0020 C.ar    1  UNL1       -0.0179
     10 C10         1.2225   -1.3943   -0.0016 C.ar    1  UNL1       -0.0540
     11 H1          3.3723   -1.2413   -0.0180 H       1  UNL1        0.0618
     12 H2          3.3728    1.2391   -0.0081 H       1  UNL1        0.0618
     13 H3          1.2438    2.4803    0.0083 H       1  UNL1        0.0624
     14 H4         -1.2456    2.4816   -0.0043 H       1  UNL1        0.0624
     15 H5         -3.3760    1.2424   -0.0191 H       1  UNL1        0.0618
     16 H6         -3.3777   -1.2381   -0.0101 H       1  UNL1        0.0618
     17 H7         -1.2491   -2.4805    0.0056 H       1  UNL1        0.0624
     18 H8          1.2425   -2.4818   -0.0040 H       1  UNL1        0.0624
@<TRIPOS>BOND
     1     1     2   ar
     2     2     3   ar
     3     3     4   ar
     4     4     5   ar
     5     5     6   ar
     6     6     7   ar
     7     7     8   ar
     8     8     9   ar
     9     4     9   ar
    10     9    10   ar
    11     1    10   ar
    12     1    11    1
    13     2    12    1
    14     3    13    1
    15     5    14    1
    16     6    15    1
    17     7    16    1
    18     8    17    1
    19    10    18    1
