@<TRIPOS>MOLECULE
tacrine.pdb
 29 31 0 0 0
SMALL
GASTEIGER

@<TRIPOS>ATOM
      1  N1         0.0180   -1.5500   -0.0290 N.ar  900  UNK900     -0.2512
      2  N2         0.0130    2.6440    0.0520 N.pl3 900  UNK900     -0.3572
      3  C1        -3.7040    0.4480   -0.3390 C.3   900  UNK900     -0.0486
      4  C2        -2.4940    1.3000    0.0420 C.3   900  UNK900     -0.0242
      5  C3        -3.6510   -0.9030    0.3640 C.3   900  UNK900     -0.0473
      6  C4        -1.1970    0.5400   -0.0090 C.ar  900  UNK900     -0.0049
      7  C5        -2.4070   -1.6750   -0.0680 C.3   900  UNK900     -0.0101
      8  C6        -1.1470   -0.8520   -0.0150 C.ar  900  UNK900      0.0469
      9  C7         0.0180    1.2250    0.0140 C.ar  900  UNK900      0.0388
     10  C8         1.2320    0.5260    0.0060 C.ar  900  UNK900      0.0213
     11  C9         1.1840   -0.8800   -0.0170 C.ar  900  UNK900      0.0730
     12  C10        2.4680    1.1950    0.0220 C.ar  900  UNK900     -0.0508
     13  C11        2.3890   -1.5770   -0.0260 C.ar  900  UNK900     -0.0357
     14  C12        3.6590    0.4740    0.0130 C.ar  900  UNK900     -0.0610
     15  C13        3.6190   -0.9140   -0.0120 C.ar  900  UNK900     -0.0597
     16 H          -0.8413    3.1333    0.0576 H     900  UNK900      0.1423
     17 H           0.8638    3.1389    0.0728 H     900  UNK900      0.1423
     18 H          -3.7061    0.2937   -1.3978 H     900  UNK900      0.0269
     19 H          -4.5945    0.9590   -0.0378 H     900  UNK900      0.0269
     20 H          -2.6352    1.6660    1.0375 H     900  UNK900      0.0314
     21 H          -2.4262    2.0946   -0.6714 H     900  UNK900      0.0314
     22 H          -4.5234   -1.4680    0.1097 H     900  UNK900      0.0269
     23 H          -3.6132   -0.7445    1.4215 H     900  UNK900      0.0269
     24 H          -2.2890   -2.5187    0.5794 H     900  UNK900      0.0328
     25 H          -2.5527   -1.9662   -1.0873 H     900  UNK900      0.0328
     26 H           2.4929    2.2265    0.0405 H     900  UNK900      0.0625
     27 H           2.3735   -2.6087   -0.0434 H     900  UNK900      0.0639
     28 H           4.5653    0.9675    0.0248 H     900  UNK900      0.0618
     29 H           4.4974   -1.4556   -0.0202 H     900  UNK900      0.0618
@<TRIPOS>BOND
     1     3     4    1
     2     3     5    1
     3     7     8    1
     4     7     5    1
     5     1    11   ar
     6     1     8   ar
     7    13    11   ar
     8    13    15   ar
     9    11    10   ar
    10     8     6   ar
    11    15    14   ar
    12     6     9   ar
    13     6     4    1
    14    10     9   ar
    15    10    12   ar
    16    14    12   ar
    17     9     2    1
    18     2    16    1
    19     2    17    1
    20     3    18    1
    21     3    19    1
    22     4    20    1
    23     4    21    1
    24     5    22    1
    25     5    23    1
    26     7    24    1
    27     7    25    1
    28    12    26    1
    29    13    27    1
    30    14    28    1
    31    15    29    1
