@<TRIPOS>MOLECULE
783.pdb
 46 49 0 0 0
SMALL
GASTEIGER

@<TRIPOS>ATOM
      1  C1        44.2780   -3.1340   26.0590 C.ar  246  783246      0.0654
      2  C2        44.6320   -1.7640   26.1090 C.ar  246  783246     -0.0449
      3  C3        44.5840   -1.0180   27.2880 C.ar  246  783246     -0.0370
      4  C4        44.1730   -1.6670   28.4050 C.ar  246  783246      0.0470
      5  C5        43.8190   -2.9600   28.4280 C.ar  246  783246      0.0011
      6  C6        43.8590   -3.7220   27.2640 C.ar  246  783246     -0.0377
      7  C7        44.3490   -3.8640   24.8650 C.2   246  783246      0.3081
      8  N1        43.9970   -5.1330   24.8270 N.pl3 246  783246     -0.2466
      9  N2        44.7820   -3.2510   23.7920 N.2   246  783246     -0.0994
     10  N3        44.0500   -1.2020   29.6330 N.ar  246  783246     -0.3540
     11  CN4       43.3960   -3.2290   29.6720 C.ar  246  783246     -0.0285
     12  C8        43.6260   -2.1350   30.4700 C.ar  246  783246      0.0511
     13  C1'       43.3930   -1.8930   31.8160 C.ar  246  783246      0.0438
     14  C2'       43.0830   -2.9860   32.6260 C.ar  246  783246     -0.0073
     15  C3'       42.8380   -2.8490   33.9750 C.ar  246  783246      0.1215
     16  O3'       42.5180   -3.9370   34.7750 O.3   246  783246     -0.4951
     17  C3X       41.1470   -3.9560   35.1580 C.3   246  783246      0.0788
     18  C4'       42.9000   -1.6070   34.5350 C.ar  246  783246     -0.0087
     19  C5'       43.2020   -0.4760   33.8010 C.ar  246  783246      0.0277
     20  C6'       43.4470   -0.6200   32.4130 C.ar  246  783246      0.1338
     21  O6'       43.7190    0.4550   31.5840 O.3   246  783246     -0.5055
     22  C1B       43.2590    0.7010   34.5330 C.ar  246  783246     -0.0143
     23  C2B       44.4190    1.4820   34.5830 C.ar  246  783246     -0.0539
     24  C3B       44.4820    2.6380   35.3460 C.ar  246  783246     -0.0612
     25  C4B       43.3820    3.0290   36.0880 C.ar  246  783246     -0.0617
     26  C5B       42.2150    2.2800   36.0650 C.ar  246  783246     -0.0612
     27  C6B       42.1600    1.1250   35.2950 C.ar  246  783246     -0.0539
     28 H          44.9374   -1.2987   25.2399 H     246  783246      0.0627
     29 H          44.8486   -0.0207   27.3083 H     246  783246      0.0638
     30 H          43.5817   -4.7158   27.2861 H     246  783246      0.0632
     31 H          44.0519   -5.6339   23.9813 H     246  783246      0.2884
     32 H          43.6791   -5.5803   25.6443 H     246  783246      0.2884
     33 H          44.8432   -3.7373   22.9382 H     246  783246      0.3633
     34 H          44.2493   -0.2741   29.8949 H     246  783246      0.1659
     35 H          42.9667   -4.1155   29.9801 H     246  783246      0.0645
     36 H          43.0358   -3.9256   32.2018 H     246  783246      0.0662
     37 H          40.9597   -4.8130   35.7707 H     246  783246      0.0660
     38 H          40.5328   -4.0020   34.2830 H     246  783246      0.0660
     39 H          40.9180   -3.0673   35.7082 H     246  783246      0.0660
     40 H          42.7143   -1.5082   35.5453 H     246  783246      0.0661
     41 H          43.8752    0.3147   30.6708 H     246  783246      0.2922
     42 H          45.2466    1.1909   34.0395 H     246  783246      0.0624
     43 H          45.3450    3.2037   35.3603 H     246  783246      0.0618
     44 H          43.4301    3.8846   36.6631 H     246  783246      0.0618
     45 H          41.3944    2.5781   36.6152 H     246  783246      0.0618
     46 H          41.2920    0.5669   35.2833 H     246  783246      0.0624
@<TRIPOS>BOND
     1     9     7    2
     2     8     7    1
     3     7     1    1
     4     1     2   ar
     5     1     6   ar
     6     2     3   ar
     7     6     5   ar
     8     3     4   ar
     9     4     5   ar
    10     4    10   ar
    11     5    11   ar
    12    10    12   ar
    13    11    12   ar
    14    12    13    1
    15    21    20    1
    16    13    20   ar
    17    13    14   ar
    18    20    19   ar
    19    14    15   ar
    20    19    22    1
    21    19    18   ar
    22    15    18   ar
    23    15    16    1
    24    22    23   ar
    25    22    27   ar
    26    23    24   ar
    27    16    17    1
    28    27    26   ar
    29    24    25   ar
    30    26    25   ar
    31     2    28    1
    32     3    29    1
    33     6    30    1
    34     8    31    1
    35     8    32    1
    36     9    33    1
    37    10    34    1
    38    11    35    1
    39    14    36    1
    40    17    37    1
    41    17    38    1
    42    17    39    1
    43    18    40    1
    44    21    41    1
    45    23    42    1
    46    24    43    1
    47    25    44    1
    48    26    45    1
    49    27    46    1
